version 2
run AODVNET-0-20230527-10:48:58-35276
attr configname AODVNET
attr datetime 20230527-10:48:58
attr experiment AODVNET
attr inifile omnetpp.ini
attr iterationvars ""
attr iterationvarsf ""
attr measurement ""
attr network asamrtnet
attr processid 35276
attr repetition 0
attr replication #0
attr resultdir results
attr runnumber 0
attr seedset 0
param **.wlan[*].typename "\"AckingWirelessInterface\""
param **.wlan[*].bitrate 2Mbps
param **.wlan[*].mac.headerLength 23B
param **.wlan[*].radio.typename "\"UnitDiskRadio\""
param **.wlan[*].radio.transmitter.headerLength 96b
param **.wlan[*].radio.transmitter.communicationRange 250m
param **.wlan[*].radio.transmitter.interferenceRange 0m
param **.wlan[*].radio.transmitter.detectionRange 0m
param **.wlan[*].radio.receiver.ignoreInterference true
param *.numHosts 20
param **.mobility.constraintAreaMinZ 0m
param **.mobility.constraintAreaMaxZ 0m
param **.mobility.constraintAreaMinX 0m
param **.mobility.constraintAreaMinY 0m
param **.mobility.constraintAreaMaxX 600m
param **.mobility.constraintAreaMaxY 600m
param *.host[0].numApps 1
param *.host[0].app[0].typename "\"PingApp\""
param *.host[0].app[0].startTime uniform(1s,5s)
param *.host[0].app[0].printPing true
param **.hasStatus true
param **.visualizer.*.routingTableVisualizer[0].displayRoutingTables false
param **.visualizer.*.routingTableVisualizer[0].displayRoutesIndividually false
param **.visualizer.*.routingTableVisualizer[0].lineShift 1
param **.visualizer.*.routingTableVisualizer[0].displayLabels false
param **.visualizer.*.interfaceTableVisualizer[0].displayInterfaceTables true
param *.visualizer.*.numDataLinkVisualizers 1
param *.visualizer.*.dataLinkVisualizer*.displayLinks true
param *.visualizer.*.dataLinkVisualizer*.*Color "\"red\""
param *.host[0].app[0].destAddr "\"host[1](ipv4)\""
param *.host[1].app[0].destAddr "\"host[4](ipv4)\""
param **.aodv.activeRouteTimeout 3s
param **.host[2..20].mobility.typename "\"MassMobility\""
param **.host[0].mobility.typename "\"StationaryMobility\""
param **.host[1].mobility.typename "\"StationaryMobility\""
param **.host[*].mobility.changeInterval "normal(5s, 0.1s)"
param **.host[*].mobility.angleDelta "normal(0deg, 30deg)"
param **.host[*].mobility.speed "normal(2mps, 0.01mps)"
param **.host[1].mobility.initialX 600m
param **.host[1].mobility.initialY 600m
param *.scenarioManager.script "xmldoc(\"NodeSettings.xml\")"

vector 0 asamrtnet.host[0].wlan[0].radio radioMode:vector ETV
attr interpolationmode sample-hold
attr source radioModeChanged
attr title "Radio mode, vector"
vector 1 asamrtnet.host[1].wlan[0].radio radioMode:vector ETV
attr interpolationmode sample-hold
attr source radioModeChanged
attr title "Radio mode, vector"
vector 2 asamrtnet.host[2].wlan[0].radio radioMode:vector ETV
attr interpolationmode sample-hold
attr source radioModeChanged
attr title "Radio mode, vector"
vector 3 asamrtnet.host[3].wlan[0].radio radioMode:vector ETV
attr interpolationmode sample-hold
attr source radioModeChanged
attr title "Radio mode, vector"
vector 4 asamrtnet.host[4].wlan[0].radio radioMode:vector ETV
attr interpolationmode sample-hold
attr source radioModeChanged
attr title "Radio mode, vector"
vector 5 asamrtnet.host[5].wlan[0].radio radioMode:vector ETV
attr interpolationmode sample-hold
attr source radioModeChanged
attr title "Radio mode, vector"
vector 6 asamrtnet.host[6].wlan[0].radio radioMode:vector ETV
attr interpolationmode sample-hold
attr source radioModeChanged
attr title "Radio mode, vector"
vector 7 asamrtnet.host[7].wlan[0].radio radioMode:vector ETV
attr interpolationmode sample-hold
attr source radioModeChanged
attr title "Radio mode, vector"
vector 8 asamrtnet.host[8].wlan[0].radio radioMode:vector ETV
attr interpolationmode sample-hold
attr source radioModeChanged
attr title "Radio mode, vector"
vector 9 asamrtnet.host[9].wlan[0].radio radioMode:vector ETV
attr interpolationmode sample-hold
attr source radioModeChanged
attr title "Radio mode, vector"
vector 10 asamrtnet.host[10].wlan[0].radio radioMode:vector ETV
attr interpolationmode sample-hold
attr source radioModeChanged
attr title "Radio mode, vector"
vector 11 asamrtnet.host[11].wlan[0].radio radioMode:vector ETV
attr interpolationmode sample-hold
attr source radioModeChanged
attr title "Radio mode, vector"
vector 12 asamrtnet.host[12].wlan[0].radio radioMode:vector ETV
attr interpolationmode sample-hold
attr source radioModeChanged
attr title "Radio mode, vector"
vector 13 asamrtnet.host[13].wlan[0].radio radioMode:vector ETV
attr interpolationmode sample-hold
attr source radioModeChanged
attr title "Radio mode, vector"
vector 14 asamrtnet.host[14].wlan[0].radio radioMode:vector ETV
attr interpolationmode sample-hold
attr source radioModeChanged
attr title "Radio mode, vector"
vector 15 asamrtnet.host[15].wlan[0].radio radioMode:vector ETV
attr interpolationmode sample-hold
attr source radioModeChanged
attr title "Radio mode, vector"
vector 16 asamrtnet.host[16].wlan[0].radio radioMode:vector ETV
attr interpolationmode sample-hold
attr source radioModeChanged
attr title "Radio mode, vector"
vector 17 asamrtnet.host[17].wlan[0].radio radioMode:vector ETV
attr interpolationmode sample-hold
attr source radioModeChanged
attr title "Radio mode, vector"
vector 18 asamrtnet.host[18].wlan[0].radio radioMode:vector ETV
attr interpolationmode sample-hold
attr source radioModeChanged
attr title "Radio mode, vector"
vector 19 asamrtnet.host[19].wlan[0].radio radioMode:vector ETV
attr interpolationmode sample-hold
attr source radioModeChanged
attr title "Radio mode, vector"
vector 20 asamrtnet.host[0].wlan[0].radio receptionState:vector ETV
attr interpolationmode sample-hold
attr source receptionStateChanged
attr title "Radio reception state, vector"
vector 21 asamrtnet.host[0].wlan[0].radio transmissionState:vector ETV
attr interpolationmode sample-hold
attr source transmissionStateChanged
attr title "Radio transmission state, vector"
vector 22 asamrtnet.host[1].wlan[0].radio receptionState:vector ETV
attr interpolationmode sample-hold
attr source receptionStateChanged
attr title "Radio reception state, vector"
vector 23 asamrtnet.host[1].wlan[0].radio transmissionState:vector ETV
attr interpolationmode sample-hold
attr source transmissionStateChanged
attr title "Radio transmission state, vector"
vector 24 asamrtnet.host[2].wlan[0].radio receptionState:vector ETV
attr interpolationmode sample-hold
attr source receptionStateChanged
attr title "Radio reception state, vector"
vector 25 asamrtnet.host[2].wlan[0].radio transmissionState:vector ETV
attr interpolationmode sample-hold
attr source transmissionStateChanged
attr title "Radio transmission state, vector"
vector 26 asamrtnet.host[3].wlan[0].radio receptionState:vector ETV
attr interpolationmode sample-hold
attr source receptionStateChanged
attr title "Radio reception state, vector"
vector 27 asamrtnet.host[3].wlan[0].radio transmissionState:vector ETV
attr interpolationmode sample-hold
attr source transmissionStateChanged
attr title "Radio transmission state, vector"
vector 28 asamrtnet.host[4].wlan[0].radio receptionState:vector ETV
attr interpolationmode sample-hold
attr source receptionStateChanged
attr title "Radio reception state, vector"
vector 29 asamrtnet.host[4].wlan[0].radio transmissionState:vector ETV
attr interpolationmode sample-hold
attr source transmissionStateChanged
attr title "Radio transmission state, vector"
vector 30 asamrtnet.host[5].wlan[0].radio receptionState:vector ETV
attr interpolationmode sample-hold
attr source receptionStateChanged
attr title "Radio reception state, vector"
vector 31 asamrtnet.host[5].wlan[0].radio transmissionState:vector ETV
attr interpolationmode sample-hold
attr source transmissionStateChanged
attr title "Radio transmission state, vector"
vector 32 asamrtnet.host[6].wlan[0].radio receptionState:vector ETV
attr interpolationmode sample-hold
attr source receptionStateChanged
attr title "Radio reception state, vector"
vector 33 asamrtnet.host[6].wlan[0].radio transmissionState:vector ETV
attr interpolationmode sample-hold
attr source transmissionStateChanged
attr title "Radio transmission state, vector"
vector 34 asamrtnet.host[7].wlan[0].radio receptionState:vector ETV
attr interpolationmode sample-hold
attr source receptionStateChanged
attr title "Radio reception state, vector"
vector 35 asamrtnet.host[7].wlan[0].radio transmissionState:vector ETV
attr interpolationmode sample-hold
attr source transmissionStateChanged
attr title "Radio transmission state, vector"
vector 36 asamrtnet.host[8].wlan[0].radio receptionState:vector ETV
attr interpolationmode sample-hold
attr source receptionStateChanged
attr title "Radio reception state, vector"
vector 37 asamrtnet.host[8].wlan[0].radio transmissionState:vector ETV
attr interpolationmode sample-hold
attr source transmissionStateChanged
attr title "Radio transmission state, vector"
vector 38 asamrtnet.host[9].wlan[0].radio receptionState:vector ETV
attr interpolationmode sample-hold
attr source receptionStateChanged
attr title "Radio reception state, vector"
vector 39 asamrtnet.host[9].wlan[0].radio transmissionState:vector ETV
attr interpolationmode sample-hold
attr source transmissionStateChanged
attr title "Radio transmission state, vector"
vector 40 asamrtnet.host[10].wlan[0].radio receptionState:vector ETV
attr interpolationmode sample-hold
attr source receptionStateChanged
attr title "Radio reception state, vector"
vector 41 asamrtnet.host[10].wlan[0].radio transmissionState:vector ETV
attr interpolationmode sample-hold
attr source transmissionStateChanged
attr title "Radio transmission state, vector"
vector 42 asamrtnet.host[11].wlan[0].radio receptionState:vector ETV
attr interpolationmode sample-hold
attr source receptionStateChanged
attr title "Radio reception state, vector"
vector 43 asamrtnet.host[11].wlan[0].radio transmissionState:vector ETV
attr interpolationmode sample-hold
attr source transmissionStateChanged
attr title "Radio transmission state, vector"
vector 44 asamrtnet.host[12].wlan[0].radio receptionState:vector ETV
attr interpolationmode sample-hold
attr source receptionStateChanged
attr title "Radio reception state, vector"
vector 45 asamrtnet.host[12].wlan[0].radio transmissionState:vector ETV
attr interpolationmode sample-hold
attr source transmissionStateChanged
attr title "Radio transmission state, vector"
vector 46 asamrtnet.host[13].wlan[0].radio receptionState:vector ETV
attr interpolationmode sample-hold
attr source receptionStateChanged
attr title "Radio reception state, vector"
vector 47 asamrtnet.host[13].wlan[0].radio transmissionState:vector ETV
attr interpolationmode sample-hold
attr source transmissionStateChanged
attr title "Radio transmission state, vector"
vector 48 asamrtnet.host[14].wlan[0].radio receptionState:vector ETV
attr interpolationmode sample-hold
attr source receptionStateChanged
attr title "Radio reception state, vector"
vector 49 asamrtnet.host[14].wlan[0].radio transmissionState:vector ETV
attr interpolationmode sample-hold
attr source transmissionStateChanged
attr title "Radio transmission state, vector"
vector 50 asamrtnet.host[15].wlan[0].radio receptionState:vector ETV
attr interpolationmode sample-hold
attr source receptionStateChanged
attr title "Radio reception state, vector"
vector 51 asamrtnet.host[15].wlan[0].radio transmissionState:vector ETV
attr interpolationmode sample-hold
attr source transmissionStateChanged
attr title "Radio transmission state, vector"
vector 52 asamrtnet.host[16].wlan[0].radio receptionState:vector ETV
attr interpolationmode sample-hold
attr source receptionStateChanged
attr title "Radio reception state, vector"
vector 53 asamrtnet.host[16].wlan[0].radio transmissionState:vector ETV
attr interpolationmode sample-hold
attr source transmissionStateChanged
attr title "Radio transmission state, vector"
vector 54 asamrtnet.host[17].wlan[0].radio receptionState:vector ETV
attr interpolationmode sample-hold
attr source receptionStateChanged
attr title "Radio reception state, vector"
vector 55 asamrtnet.host[17].wlan[0].radio transmissionState:vector ETV
attr interpolationmode sample-hold
attr source transmissionStateChanged
attr title "Radio transmission state, vector"
vector 56 asamrtnet.host[18].wlan[0].radio receptionState:vector ETV
attr interpolationmode sample-hold
attr source receptionStateChanged
attr title "Radio reception state, vector"
vector 57 asamrtnet.host[18].wlan[0].radio transmissionState:vector ETV
attr interpolationmode sample-hold
attr source transmissionStateChanged
attr title "Radio transmission state, vector"
vector 58 asamrtnet.host[19].wlan[0].radio receptionState:vector ETV
attr interpolationmode sample-hold
attr source receptionStateChanged
attr title "Radio reception state, vector"
vector 59 asamrtnet.host[19].wlan[0].radio transmissionState:vector ETV
attr interpolationmode sample-hold
attr source transmissionStateChanged
attr title "Radio transmission state, vector"
vector 60 asamrtnet.host[0].app[0] pingTxSeq:vector ETV
attr interpolationmode none
attr title "ping tx seq, vector"
vector 61 asamrtnet.host[0].udp packetSent:vector(packetBytes) ETV
attr interpolationmode none
attr source packetSent
attr title "packets sent, vector(packetBytes)"
vector 62 asamrtnet.host[0].wlan[0].mac rcvdPkFromHl:vector(packetBytes) ETV
attr interpolationmode none
attr source packetReceivedFromUpper
attr title "packets received from higher layer, vector(packetBytes)"
vector 63 asamrtnet.host[0].wlan[0].mac.queue packetPushed:vector(packetBytes) ETV
attr interpolationmode none
attr title "packet pushed, vector(packetBytes)"
vector 64 asamrtnet.host[0].wlan[0].mac.queue queueLength:vector ETV
attr interpolationmode sample-hold
attr source "count(packetPushed) - count(packetPopped) - count(packetRemoved) - count(packetDropped)"
attr title "queue length, vector"
vector 65 asamrtnet.host[0].wlan[0].mac.queue packetPopped:vector(packetBytes) ETV
attr interpolationmode none
attr title "packet popped, vector(packetBytes)"
vector 66 asamrtnet.host[0].wlan[0].mac.queue queueingTime:vector ETV
attr interpolationmode none
attr source queueingTime(packetPopped)
attr title "queueing times, vector"
attr unit s
vector 67 asamrtnet.host[0].wlan[0].mac sentDownPk:vector(packetBytes) ETV
attr interpolationmode none
attr source packetSentToLower
attr title "packets sent to lower layer, vector(packetBytes)"
vector 68 asamrtnet.host[4].wlan[0].mac rcvdPkFromLl:vector(packetBytes) ETV
attr interpolationmode none
attr source packetReceivedFromLower
attr title "packets received from lower layer, vector(packetBytes)"
vector 69 asamrtnet.host[4].wlan[0].mac passedUpPk:vector(packetBytes) ETV
attr interpolationmode none
attr source packetSentToUpper
attr title "packets passed to higher layer, vector(packetBytes)"
vector 70 asamrtnet.host[4].udp packetReceived:vector(packetBytes) ETV
attr interpolationmode none
attr source packetReceived
attr title "packets received, vector(packetBytes)"
vector 71 asamrtnet.host[4].udp passedUpPk:vector(count) ETV
attr interpolationmode none
attr source packetSentToUpper
attr title "packets passed up, vector(count)"
vector 72 asamrtnet.host[15].wlan[0].mac rcvdPkFromLl:vector(packetBytes) ETV
attr interpolationmode none
attr source packetReceivedFromLower
attr title "packets received from lower layer, vector(packetBytes)"
vector 73 asamrtnet.host[15].wlan[0].mac passedUpPk:vector(packetBytes) ETV
attr interpolationmode none
attr source packetSentToUpper
attr title "packets passed to higher layer, vector(packetBytes)"
vector 74 asamrtnet.host[15].udp packetReceived:vector(packetBytes) ETV
attr interpolationmode none
attr source packetReceived
attr title "packets received, vector(packetBytes)"
vector 75 asamrtnet.host[15].udp passedUpPk:vector(count) ETV
attr interpolationmode none
attr source packetSentToUpper
attr title "packets passed up, vector(count)"
vector 76 asamrtnet.host[4].udp packetSent:vector(packetBytes) ETV
attr interpolationmode none
attr source packetSent
attr title "packets sent, vector(packetBytes)"
vector 77 asamrtnet.host[4].wlan[0].mac rcvdPkFromHl:vector(packetBytes) ETV
attr interpolationmode none
attr source packetReceivedFromUpper
attr title "packets received from higher layer, vector(packetBytes)"
vector 78 asamrtnet.host[4].wlan[0].mac.queue packetPushed:vector(packetBytes) ETV
attr interpolationmode none
attr title "packet pushed, vector(packetBytes)"
vector 79 asamrtnet.host[4].wlan[0].mac.queue queueLength:vector ETV
attr interpolationmode sample-hold
attr source "count(packetPushed) - count(packetPopped) - count(packetRemoved) - count(packetDropped)"
attr title "queue length, vector"
vector 80 asamrtnet.host[4].wlan[0].mac.queue packetPopped:vector(packetBytes) ETV
attr interpolationmode none
attr title "packet popped, vector(packetBytes)"
vector 81 asamrtnet.host[4].wlan[0].mac.queue queueingTime:vector ETV
attr interpolationmode none
attr source queueingTime(packetPopped)
attr title "queueing times, vector"
attr unit s
vector 82 asamrtnet.host[4].wlan[0].mac sentDownPk:vector(packetBytes) ETV
attr interpolationmode none
attr source packetSentToLower
attr title "packets sent to lower layer, vector(packetBytes)"
vector 83 asamrtnet.host[0].wlan[0].mac rcvdPkFromLl:vector(packetBytes) ETV
attr interpolationmode none
attr source packetReceivedFromLower
attr title "packets received from lower layer, vector(packetBytes)"
vector 84 asamrtnet.host[0].wlan[0].mac passedUpPk:vector(packetBytes) ETV
attr interpolationmode none
attr source packetSentToUpper
attr title "packets passed to higher layer, vector(packetBytes)"
vector 85 asamrtnet.host[0].udp packetReceived:vector(packetBytes) ETV
attr interpolationmode none
attr source packetReceived
attr title "packets received, vector(packetBytes)"
vector 86 asamrtnet.host[0].udp passedUpPk:vector(count) ETV
attr interpolationmode none
attr source packetSentToUpper
attr title "packets passed up, vector(count)"
vector 87 asamrtnet.host[15].udp packetSent:vector(packetBytes) ETV
attr interpolationmode none
attr source packetSent
attr title "packets sent, vector(packetBytes)"
vector 88 asamrtnet.host[15].wlan[0].mac rcvdPkFromHl:vector(packetBytes) ETV
attr interpolationmode none
attr source packetReceivedFromUpper
attr title "packets received from higher layer, vector(packetBytes)"
vector 89 asamrtnet.host[15].wlan[0].mac.queue packetPushed:vector(packetBytes) ETV
attr interpolationmode none
attr title "packet pushed, vector(packetBytes)"
vector 90 asamrtnet.host[15].wlan[0].mac.queue queueLength:vector ETV
attr interpolationmode sample-hold
attr source "count(packetPushed) - count(packetPopped) - count(packetRemoved) - count(packetDropped)"
attr title "queue length, vector"
vector 91 asamrtnet.host[15].wlan[0].mac.queue packetPopped:vector(packetBytes) ETV
attr interpolationmode none
attr title "packet popped, vector(packetBytes)"
vector 92 asamrtnet.host[15].wlan[0].mac.queue queueingTime:vector ETV
attr interpolationmode none
attr source queueingTime(packetPopped)
attr title "queueing times, vector"
attr unit s
vector 93 asamrtnet.host[15].wlan[0].mac sentDownPk:vector(packetBytes) ETV
attr interpolationmode none
attr source packetSentToLower
attr title "packets sent to lower layer, vector(packetBytes)"
vector 94 asamrtnet.host[10].wlan[0].mac rcvdPkFromLl:vector(packetBytes) ETV
attr interpolationmode none
attr source packetReceivedFromLower
attr title "packets received from lower layer, vector(packetBytes)"
vector 95 asamrtnet.host[10].wlan[0].mac passedUpPk:vector(packetBytes) ETV
attr interpolationmode none
attr source packetSentToUpper
attr title "packets passed to higher layer, vector(packetBytes)"
vector 96 asamrtnet.host[10].udp packetReceived:vector(packetBytes) ETV
attr interpolationmode none
attr source packetReceived
attr title "packets received, vector(packetBytes)"
vector 97 asamrtnet.host[10].udp passedUpPk:vector(count) ETV
attr interpolationmode none
attr source packetSentToUpper
attr title "packets passed up, vector(count)"
vector 98 asamrtnet.host[19].wlan[0].mac rcvdPkFromLl:vector(packetBytes) ETV
attr interpolationmode none
attr source packetReceivedFromLower
attr title "packets received from lower layer, vector(packetBytes)"
vector 99 asamrtnet.host[19].wlan[0].mac passedUpPk:vector(packetBytes) ETV
attr interpolationmode none
attr source packetSentToUpper
attr title "packets passed to higher layer, vector(packetBytes)"
vector 100 asamrtnet.host[19].udp packetReceived:vector(packetBytes) ETV
attr interpolationmode none
attr source packetReceived
attr title "packets received, vector(packetBytes)"
vector 101 asamrtnet.host[19].udp passedUpPk:vector(count) ETV
attr interpolationmode none
attr source packetSentToUpper
attr title "packets passed up, vector(count)"
vector 102 asamrtnet.host[10].udp packetSent:vector(packetBytes) ETV
attr interpolationmode none
attr source packetSent
attr title "packets sent, vector(packetBytes)"
vector 103 asamrtnet.host[10].wlan[0].mac rcvdPkFromHl:vector(packetBytes) ETV
attr interpolationmode none
attr source packetReceivedFromUpper
attr title "packets received from higher layer, vector(packetBytes)"
vector 104 asamrtnet.host[10].wlan[0].mac.queue packetPushed:vector(packetBytes) ETV
attr interpolationmode none
attr title "packet pushed, vector(packetBytes)"
vector 105 asamrtnet.host[10].wlan[0].mac.queue queueLength:vector ETV
attr interpolationmode sample-hold
attr source "count(packetPushed) - count(packetPopped) - count(packetRemoved) - count(packetDropped)"
attr title "queue length, vector"
vector 106 asamrtnet.host[10].wlan[0].mac.queue packetPopped:vector(packetBytes) ETV
attr interpolationmode none
attr title "packet popped, vector(packetBytes)"
vector 107 asamrtnet.host[10].wlan[0].mac.queue queueingTime:vector ETV
attr interpolationmode none
attr source queueingTime(packetPopped)
attr title "queueing times, vector"
attr unit s
vector 108 asamrtnet.host[10].wlan[0].mac sentDownPk:vector(packetBytes) ETV
attr interpolationmode none
attr source packetSentToLower
attr title "packets sent to lower layer, vector(packetBytes)"
vector 109 asamrtnet.host[14].wlan[0].mac rcvdPkFromLl:vector(packetBytes) ETV
attr interpolationmode none
attr source packetReceivedFromLower
attr title "packets received from lower layer, vector(packetBytes)"
vector 110 asamrtnet.host[14].wlan[0].mac passedUpPk:vector(packetBytes) ETV
attr interpolationmode none
attr source packetSentToUpper
attr title "packets passed to higher layer, vector(packetBytes)"
vector 111 asamrtnet.host[14].udp packetReceived:vector(packetBytes) ETV
attr interpolationmode none
attr source packetReceived
attr title "packets received, vector(packetBytes)"
vector 112 asamrtnet.host[14].udp passedUpPk:vector(count) ETV
attr interpolationmode none
attr source packetSentToUpper
attr title "packets passed up, vector(count)"
vector 113 asamrtnet.host[12].wlan[0].mac rcvdPkFromLl:vector(packetBytes) ETV
attr interpolationmode none
attr source packetReceivedFromLower
attr title "packets received from lower layer, vector(packetBytes)"
vector 114 asamrtnet.host[12].wlan[0].mac passedUpPk:vector(packetBytes) ETV
attr interpolationmode none
attr source packetSentToUpper
attr title "packets passed to higher layer, vector(packetBytes)"
vector 115 asamrtnet.host[12].udp packetReceived:vector(packetBytes) ETV
attr interpolationmode none
attr source packetReceived
attr title "packets received, vector(packetBytes)"
vector 116 asamrtnet.host[12].udp passedUpPk:vector(count) ETV
attr interpolationmode none
attr source packetSentToUpper
attr title "packets passed up, vector(count)"
vector 117 asamrtnet.host[11].wlan[0].mac rcvdPkFromLl:vector(packetBytes) ETV
attr interpolationmode none
attr source packetReceivedFromLower
attr title "packets received from lower layer, vector(packetBytes)"
vector 118 asamrtnet.host[11].wlan[0].mac passedUpPk:vector(packetBytes) ETV
attr interpolationmode none
attr source packetSentToUpper
attr title "packets passed to higher layer, vector(packetBytes)"
vector 119 asamrtnet.host[11].udp packetReceived:vector(packetBytes) ETV
attr interpolationmode none
attr source packetReceived
attr title "packets received, vector(packetBytes)"
vector 120 asamrtnet.host[11].udp passedUpPk:vector(count) ETV
attr interpolationmode none
attr source packetSentToUpper
attr title "packets passed up, vector(count)"
vector 121 asamrtnet.host[18].wlan[0].mac rcvdPkFromLl:vector(packetBytes) ETV
attr interpolationmode none
attr source packetReceivedFromLower
attr title "packets received from lower layer, vector(packetBytes)"
vector 122 asamrtnet.host[18].wlan[0].mac passedUpPk:vector(packetBytes) ETV
attr interpolationmode none
attr source packetSentToUpper
attr title "packets passed to higher layer, vector(packetBytes)"
vector 123 asamrtnet.host[18].udp packetReceived:vector(packetBytes) ETV
attr interpolationmode none
attr source packetReceived
attr title "packets received, vector(packetBytes)"
vector 124 asamrtnet.host[18].udp passedUpPk:vector(count) ETV
attr interpolationmode none
attr source packetSentToUpper
attr title "packets passed up, vector(count)"
vector 125 asamrtnet.host[3].wlan[0].mac rcvdPkFromLl:vector(packetBytes) ETV
attr interpolationmode none
attr source packetReceivedFromLower
attr title "packets received from lower layer, vector(packetBytes)"
vector 126 asamrtnet.host[3].wlan[0].mac passedUpPk:vector(packetBytes) ETV
attr interpolationmode none
attr source packetSentToUpper
attr title "packets passed to higher layer, vector(packetBytes)"
vector 127 asamrtnet.host[3].udp packetReceived:vector(packetBytes) ETV
attr interpolationmode none
attr source packetReceived
attr title "packets received, vector(packetBytes)"
vector 128 asamrtnet.host[3].udp passedUpPk:vector(count) ETV
attr interpolationmode none
attr source packetSentToUpper
attr title "packets passed up, vector(count)"
vector 129 asamrtnet.host[3].udp packetSent:vector(packetBytes) ETV
attr interpolationmode none
attr source packetSent
attr title "packets sent, vector(packetBytes)"
vector 130 asamrtnet.host[3].wlan[0].mac rcvdPkFromHl:vector(packetBytes) ETV
attr interpolationmode none
attr source packetReceivedFromUpper
attr title "packets received from higher layer, vector(packetBytes)"
vector 131 asamrtnet.host[3].wlan[0].mac.queue packetPushed:vector(packetBytes) ETV
attr interpolationmode none
attr title "packet pushed, vector(packetBytes)"
vector 132 asamrtnet.host[3].wlan[0].mac.queue queueLength:vector ETV
attr interpolationmode sample-hold
attr source "count(packetPushed) - count(packetPopped) - count(packetRemoved) - count(packetDropped)"
attr title "queue length, vector"
vector 133 asamrtnet.host[3].wlan[0].mac.queue packetPopped:vector(packetBytes) ETV
attr interpolationmode none
attr title "packet popped, vector(packetBytes)"
vector 134 asamrtnet.host[3].wlan[0].mac.queue queueingTime:vector ETV
attr interpolationmode none
attr source queueingTime(packetPopped)
attr title "queueing times, vector"
attr unit s
vector 135 asamrtnet.host[3].wlan[0].mac sentDownPk:vector(packetBytes) ETV
attr interpolationmode none
attr source packetSentToLower
attr title "packets sent to lower layer, vector(packetBytes)"
vector 136 asamrtnet.host[17].wlan[0].mac rcvdPkFromLl:vector(packetBytes) ETV
attr interpolationmode none
attr source packetReceivedFromLower
attr title "packets received from lower layer, vector(packetBytes)"
vector 137 asamrtnet.host[17].wlan[0].mac passedUpPk:vector(packetBytes) ETV
attr interpolationmode none
attr source packetSentToUpper
attr title "packets passed to higher layer, vector(packetBytes)"
vector 138 asamrtnet.host[17].udp packetReceived:vector(packetBytes) ETV
attr interpolationmode none
attr source packetReceived
attr title "packets received, vector(packetBytes)"
vector 139 asamrtnet.host[17].udp passedUpPk:vector(count) ETV
attr interpolationmode none
attr source packetSentToUpper
attr title "packets passed up, vector(count)"
vector 140 asamrtnet.host[1].wlan[0].mac rcvdPkFromLl:vector(packetBytes) ETV
attr interpolationmode none
attr source packetReceivedFromLower
attr title "packets received from lower layer, vector(packetBytes)"
vector 141 asamrtnet.host[1].wlan[0].mac passedUpPk:vector(packetBytes) ETV
attr interpolationmode none
attr source packetSentToUpper
attr title "packets passed to higher layer, vector(packetBytes)"
vector 142 asamrtnet.host[1].udp packetReceived:vector(packetBytes) ETV
attr interpolationmode none
attr source packetReceived
attr title "packets received, vector(packetBytes)"
vector 143 asamrtnet.host[1].udp passedUpPk:vector(count) ETV
attr interpolationmode none
attr source packetSentToUpper
attr title "packets passed up, vector(count)"
vector 144 asamrtnet.host[1].udp packetSent:vector(packetBytes) ETV
attr interpolationmode none
attr source packetSent
attr title "packets sent, vector(packetBytes)"
vector 145 asamrtnet.host[1].ipv4.arp arpRequestSent:vector(packetBytes) ETV
attr source arpRequestSent
attr title "ARP request sent, vector(packetBytes)"
vector 146 asamrtnet.host[1].wlan[0].mac rcvdPkFromHl:vector(packetBytes) ETV
attr interpolationmode none
attr source packetReceivedFromUpper
attr title "packets received from higher layer, vector(packetBytes)"
vector 147 asamrtnet.host[1].wlan[0].mac.queue packetPushed:vector(packetBytes) ETV
attr interpolationmode none
attr title "packet pushed, vector(packetBytes)"
vector 148 asamrtnet.host[1].wlan[0].mac.queue queueLength:vector ETV
attr interpolationmode sample-hold
attr source "count(packetPushed) - count(packetPopped) - count(packetRemoved) - count(packetDropped)"
attr title "queue length, vector"
vector 149 asamrtnet.host[1].wlan[0].mac.queue packetPopped:vector(packetBytes) ETV
attr interpolationmode none
attr title "packet popped, vector(packetBytes)"
vector 150 asamrtnet.host[1].wlan[0].mac.queue queueingTime:vector ETV
attr interpolationmode none
attr source queueingTime(packetPopped)
attr title "queueing times, vector"
attr unit s
vector 151 asamrtnet.host[1].wlan[0].mac sentDownPk:vector(packetBytes) ETV
attr interpolationmode none
attr source packetSentToLower
attr title "packets sent to lower layer, vector(packetBytes)"
vector 152 asamrtnet.host[13].wlan[0].mac rcvdPkFromLl:vector(packetBytes) ETV
attr interpolationmode none
attr source packetReceivedFromLower
attr title "packets received from lower layer, vector(packetBytes)"
vector 153 asamrtnet.host[13].wlan[0].mac passedUpPk:vector(packetBytes) ETV
attr interpolationmode none
attr source packetSentToUpper
attr title "packets passed to higher layer, vector(packetBytes)"
vector 154 asamrtnet.host[13].udp packetReceived:vector(packetBytes) ETV
attr interpolationmode none
attr source packetReceived
attr title "packets received, vector(packetBytes)"
vector 155 asamrtnet.host[13].udp passedUpPk:vector(count) ETV
attr interpolationmode none
attr source packetSentToUpper
attr title "packets passed up, vector(count)"
vector 156 asamrtnet.host[11].udp packetSent:vector(packetBytes) ETV
attr interpolationmode none
attr source packetSent
attr title "packets sent, vector(packetBytes)"
vector 157 asamrtnet.host[11].wlan[0].mac rcvdPkFromHl:vector(packetBytes) ETV
attr interpolationmode none
attr source packetReceivedFromUpper
attr title "packets received from higher layer, vector(packetBytes)"
vector 158 asamrtnet.host[11].wlan[0].mac.queue packetPushed:vector(packetBytes) ETV
attr interpolationmode none
attr title "packet pushed, vector(packetBytes)"
vector 159 asamrtnet.host[11].wlan[0].mac.queue queueLength:vector ETV
attr interpolationmode sample-hold
attr source "count(packetPushed) - count(packetPopped) - count(packetRemoved) - count(packetDropped)"
attr title "queue length, vector"
vector 160 asamrtnet.host[11].wlan[0].mac.queue packetPopped:vector(packetBytes) ETV
attr interpolationmode none
attr title "packet popped, vector(packetBytes)"
vector 161 asamrtnet.host[11].wlan[0].mac.queue queueingTime:vector ETV
attr interpolationmode none
attr source queueingTime(packetPopped)
attr title "queueing times, vector"
attr unit s
vector 162 asamrtnet.host[11].wlan[0].mac sentDownPk:vector(packetBytes) ETV
attr interpolationmode none
attr source packetSentToLower
attr title "packets sent to lower layer, vector(packetBytes)"
vector 163 asamrtnet.host[3].ipv4.arp arpReplySent:vector(packetBytes) ETV
attr source arpReplySent
attr title "ARP replies sent, vector(packetBytes)"
vector 164 asamrtnet.host[9].wlan[0].mac rcvdPkFromLl:vector(packetBytes) ETV
attr interpolationmode none
attr source packetReceivedFromLower
attr title "packets received from lower layer, vector(packetBytes)"
vector 165 asamrtnet.host[9].wlan[0].mac passedUpPk:vector(packetBytes) ETV
attr interpolationmode none
attr source packetSentToUpper
attr title "packets passed to higher layer, vector(packetBytes)"
vector 166 asamrtnet.host[16].wlan[0].mac rcvdPkFromLl:vector(packetBytes) ETV
attr interpolationmode none
attr source packetReceivedFromLower
attr title "packets received from lower layer, vector(packetBytes)"
vector 167 asamrtnet.host[16].wlan[0].mac passedUpPk:vector(packetBytes) ETV
attr interpolationmode none
attr source packetSentToUpper
attr title "packets passed to higher layer, vector(packetBytes)"
vector 168 asamrtnet.host[14].udp packetSent:vector(packetBytes) ETV
attr interpolationmode none
attr source packetSent
attr title "packets sent, vector(packetBytes)"
vector 169 asamrtnet.host[14].wlan[0].mac rcvdPkFromHl:vector(packetBytes) ETV
attr interpolationmode none
attr source packetReceivedFromUpper
attr title "packets received from higher layer, vector(packetBytes)"
vector 170 asamrtnet.host[14].wlan[0].mac.queue packetPushed:vector(packetBytes) ETV
attr interpolationmode none
attr title "packet pushed, vector(packetBytes)"
vector 171 asamrtnet.host[14].wlan[0].mac.queue queueLength:vector ETV
attr interpolationmode sample-hold
attr source "count(packetPushed) - count(packetPopped) - count(packetRemoved) - count(packetDropped)"
attr title "queue length, vector"
vector 172 asamrtnet.host[14].wlan[0].mac.queue packetPopped:vector(packetBytes) ETV
attr interpolationmode none
attr title "packet popped, vector(packetBytes)"
vector 173 asamrtnet.host[14].wlan[0].mac.queue queueingTime:vector ETV
attr interpolationmode none
attr source queueingTime(packetPopped)
attr title "queueing times, vector"
attr unit s
vector 174 asamrtnet.host[14].wlan[0].mac sentDownPk:vector(packetBytes) ETV
attr interpolationmode none
attr source packetSentToLower
attr title "packets sent to lower layer, vector(packetBytes)"
vector 175 asamrtnet.host[18].udp packetSent:vector(packetBytes) ETV
attr interpolationmode none
attr source packetSent
attr title "packets sent, vector(packetBytes)"
vector 176 asamrtnet.host[18].wlan[0].mac rcvdPkFromHl:vector(packetBytes) ETV
attr interpolationmode none
attr source packetReceivedFromUpper
attr title "packets received from higher layer, vector(packetBytes)"
vector 177 asamrtnet.host[18].wlan[0].mac.queue packetPushed:vector(packetBytes) ETV
attr interpolationmode none
attr title "packet pushed, vector(packetBytes)"
vector 178 asamrtnet.host[18].wlan[0].mac.queue queueLength:vector ETV
attr interpolationmode sample-hold
attr source "count(packetPushed) - count(packetPopped) - count(packetRemoved) - count(packetDropped)"
attr title "queue length, vector"
vector 179 asamrtnet.host[18].wlan[0].mac.queue packetPopped:vector(packetBytes) ETV
attr interpolationmode none
attr title "packet popped, vector(packetBytes)"
vector 180 asamrtnet.host[18].wlan[0].mac.queue queueingTime:vector ETV
attr interpolationmode none
attr source queueingTime(packetPopped)
attr title "queueing times, vector"
attr unit s
vector 181 asamrtnet.host[18].wlan[0].mac sentDownPk:vector(packetBytes) ETV
attr interpolationmode none
attr source packetSentToLower
attr title "packets sent to lower layer, vector(packetBytes)"
vector 182 asamrtnet.host[12].wlan[0].mac packetDropNotAddressedToUs:vector(packetBytes) ETV
attr interpolationmode none
attr source packetDropReasonIsNotAddressedToUs(packetDropped)
attr title "packet drop: not addressed to us, vector(packetBytes)"
vector 183 asamrtnet.host[17].wlan[0].mac packetDropNotAddressedToUs:vector(packetBytes) ETV
attr interpolationmode none
attr source packetDropReasonIsNotAddressedToUs(packetDropped)
attr title "packet drop: not addressed to us, vector(packetBytes)"
vector 184 asamrtnet.host[11].wlan[0].mac packetDropNotAddressedToUs:vector(packetBytes) ETV
attr interpolationmode none
attr source packetDropReasonIsNotAddressedToUs(packetDropped)
attr title "packet drop: not addressed to us, vector(packetBytes)"
vector 185 asamrtnet.host[13].wlan[0].mac packetDropNotAddressedToUs:vector(packetBytes) ETV
attr interpolationmode none
attr source packetDropReasonIsNotAddressedToUs(packetDropped)
attr title "packet drop: not addressed to us, vector(packetBytes)"
vector 186 asamrtnet.host[2].wlan[0].mac rcvdPkFromLl:vector(packetBytes) ETV
attr interpolationmode none
attr source packetReceivedFromLower
attr title "packets received from lower layer, vector(packetBytes)"
vector 187 asamrtnet.host[2].wlan[0].mac passedUpPk:vector(packetBytes) ETV
attr interpolationmode none
attr source packetSentToUpper
attr title "packets passed to higher layer, vector(packetBytes)"
vector 188 asamrtnet.host[2].udp packetReceived:vector(packetBytes) ETV
attr interpolationmode none
attr source packetReceived
attr title "packets received, vector(packetBytes)"
vector 189 asamrtnet.host[2].udp passedUpPk:vector(count) ETV
attr interpolationmode none
attr source packetSentToUpper
attr title "packets passed up, vector(count)"
vector 190 asamrtnet.host[6].wlan[0].mac rcvdPkFromLl:vector(packetBytes) ETV
attr interpolationmode none
attr source packetReceivedFromLower
attr title "packets received from lower layer, vector(packetBytes)"
vector 191 asamrtnet.host[6].wlan[0].mac passedUpPk:vector(packetBytes) ETV
attr interpolationmode none
attr source packetSentToUpper
attr title "packets passed to higher layer, vector(packetBytes)"
vector 192 asamrtnet.host[6].udp packetReceived:vector(packetBytes) ETV
attr interpolationmode none
attr source packetReceived
attr title "packets received, vector(packetBytes)"
vector 193 asamrtnet.host[6].udp passedUpPk:vector(count) ETV
attr interpolationmode none
attr source packetSentToUpper
attr title "packets passed up, vector(count)"
vector 194 asamrtnet.host[16].udp packetReceived:vector(packetBytes) ETV
attr interpolationmode none
attr source packetReceived
attr title "packets received, vector(packetBytes)"
vector 195 asamrtnet.host[16].udp passedUpPk:vector(count) ETV
attr interpolationmode none
attr source packetSentToUpper
attr title "packets passed up, vector(count)"
vector 196 asamrtnet.host[9].udp packetReceived:vector(packetBytes) ETV
attr interpolationmode none
attr source packetReceived
attr title "packets received, vector(packetBytes)"
vector 197 asamrtnet.host[9].udp passedUpPk:vector(count) ETV
attr interpolationmode none
attr source packetSentToUpper
attr title "packets passed up, vector(count)"
vector 198 asamrtnet.host[12].udp packetSent:vector(packetBytes) ETV
attr interpolationmode none
attr source packetSent
attr title "packets sent, vector(packetBytes)"
vector 199 asamrtnet.host[12].wlan[0].mac rcvdPkFromHl:vector(packetBytes) ETV
attr interpolationmode none
attr source packetReceivedFromUpper
attr title "packets received from higher layer, vector(packetBytes)"
vector 200 asamrtnet.host[12].wlan[0].mac.queue packetPushed:vector(packetBytes) ETV
attr interpolationmode none
attr title "packet pushed, vector(packetBytes)"
vector 201 asamrtnet.host[12].wlan[0].mac.queue queueLength:vector ETV
attr interpolationmode sample-hold
attr source "count(packetPushed) - count(packetPopped) - count(packetRemoved) - count(packetDropped)"
attr title "queue length, vector"
vector 202 asamrtnet.host[12].wlan[0].mac.queue packetPopped:vector(packetBytes) ETV
attr interpolationmode none
attr title "packet popped, vector(packetBytes)"
vector 203 asamrtnet.host[12].wlan[0].mac.queue queueingTime:vector ETV
attr interpolationmode none
attr source queueingTime(packetPopped)
attr title "queueing times, vector"
attr unit s
vector 204 asamrtnet.host[12].wlan[0].mac sentDownPk:vector(packetBytes) ETV
attr interpolationmode none
attr source packetSentToLower
attr title "packets sent to lower layer, vector(packetBytes)"
vector 205 asamrtnet.host[19].udp packetSent:vector(packetBytes) ETV
attr interpolationmode none
attr source packetSent
attr title "packets sent, vector(packetBytes)"
vector 206 asamrtnet.host[19].wlan[0].mac rcvdPkFromHl:vector(packetBytes) ETV
attr interpolationmode none
attr source packetReceivedFromUpper
attr title "packets received from higher layer, vector(packetBytes)"
vector 207 asamrtnet.host[19].wlan[0].mac.queue packetPushed:vector(packetBytes) ETV
attr interpolationmode none
attr title "packet pushed, vector(packetBytes)"
vector 208 asamrtnet.host[19].wlan[0].mac.queue queueLength:vector ETV
attr interpolationmode sample-hold
attr source "count(packetPushed) - count(packetPopped) - count(packetRemoved) - count(packetDropped)"
attr title "queue length, vector"
vector 209 asamrtnet.host[19].wlan[0].mac.queue packetPopped:vector(packetBytes) ETV
attr interpolationmode none
attr title "packet popped, vector(packetBytes)"
vector 210 asamrtnet.host[19].wlan[0].mac.queue queueingTime:vector ETV
attr interpolationmode none
attr source queueingTime(packetPopped)
attr title "queueing times, vector"
attr unit s
vector 211 asamrtnet.host[19].wlan[0].mac sentDownPk:vector(packetBytes) ETV
attr interpolationmode none
attr source packetSentToLower
attr title "packets sent to lower layer, vector(packetBytes)"
vector 212 asamrtnet.host[16].udp packetSent:vector(packetBytes) ETV
attr interpolationmode none
attr source packetSent
attr title "packets sent, vector(packetBytes)"
vector 213 asamrtnet.host[16].wlan[0].mac rcvdPkFromHl:vector(packetBytes) ETV
attr interpolationmode none
attr source packetReceivedFromUpper
attr title "packets received from higher layer, vector(packetBytes)"
vector 214 asamrtnet.host[16].wlan[0].mac.queue packetPushed:vector(packetBytes) ETV
attr interpolationmode none
attr title "packet pushed, vector(packetBytes)"
vector 215 asamrtnet.host[16].wlan[0].mac.queue queueLength:vector ETV
attr interpolationmode sample-hold
attr source "count(packetPushed) - count(packetPopped) - count(packetRemoved) - count(packetDropped)"
attr title "queue length, vector"
vector 216 asamrtnet.host[16].wlan[0].mac.queue packetPopped:vector(packetBytes) ETV
attr interpolationmode none
attr title "packet popped, vector(packetBytes)"
vector 217 asamrtnet.host[16].wlan[0].mac.queue queueingTime:vector ETV
attr interpolationmode none
attr source queueingTime(packetPopped)
attr title "queueing times, vector"
attr unit s
vector 218 asamrtnet.host[16].wlan[0].mac sentDownPk:vector(packetBytes) ETV
attr interpolationmode none
attr source packetSentToLower
attr title "packets sent to lower layer, vector(packetBytes)"
vector 219 asamrtnet.host[9].udp packetSent:vector(packetBytes) ETV
attr interpolationmode none
attr source packetSent
attr title "packets sent, vector(packetBytes)"
vector 220 asamrtnet.host[9].wlan[0].mac rcvdPkFromHl:vector(packetBytes) ETV
attr interpolationmode none
attr source packetReceivedFromUpper
attr title "packets received from higher layer, vector(packetBytes)"
vector 221 asamrtnet.host[9].wlan[0].mac.queue packetPushed:vector(packetBytes) ETV
attr interpolationmode none
attr title "packet pushed, vector(packetBytes)"
vector 222 asamrtnet.host[9].wlan[0].mac.queue queueLength:vector ETV
attr interpolationmode sample-hold
attr source "count(packetPushed) - count(packetPopped) - count(packetRemoved) - count(packetDropped)"
attr title "queue length, vector"
vector 223 asamrtnet.host[9].wlan[0].mac.queue packetPopped:vector(packetBytes) ETV
attr interpolationmode none
attr title "packet popped, vector(packetBytes)"
vector 224 asamrtnet.host[9].wlan[0].mac.queue queueingTime:vector ETV
attr interpolationmode none
attr source queueingTime(packetPopped)
attr title "queueing times, vector"
attr unit s
vector 225 asamrtnet.host[9].wlan[0].mac sentDownPk:vector(packetBytes) ETV
attr interpolationmode none
attr source packetSentToLower
attr title "packets sent to lower layer, vector(packetBytes)"
vector 226 asamrtnet.host[13].udp packetSent:vector(packetBytes) ETV
attr interpolationmode none
attr source packetSent
attr title "packets sent, vector(packetBytes)"
vector 227 asamrtnet.host[13].wlan[0].mac rcvdPkFromHl:vector(packetBytes) ETV
attr interpolationmode none
attr source packetReceivedFromUpper
attr title "packets received from higher layer, vector(packetBytes)"
vector 228 asamrtnet.host[13].wlan[0].mac.queue packetPushed:vector(packetBytes) ETV
attr interpolationmode none
attr title "packet pushed, vector(packetBytes)"
vector 229 asamrtnet.host[13].wlan[0].mac.queue queueLength:vector ETV
attr interpolationmode sample-hold
attr source "count(packetPushed) - count(packetPopped) - count(packetRemoved) - count(packetDropped)"
attr title "queue length, vector"
vector 230 asamrtnet.host[13].wlan[0].mac.queue packetPopped:vector(packetBytes) ETV
attr interpolationmode none
attr title "packet popped, vector(packetBytes)"
vector 231 asamrtnet.host[13].wlan[0].mac.queue queueingTime:vector ETV
attr interpolationmode none
attr source queueingTime(packetPopped)
attr title "queueing times, vector"
attr unit s
vector 232 asamrtnet.host[13].wlan[0].mac sentDownPk:vector(packetBytes) ETV
attr interpolationmode none
attr source packetSentToLower
attr title "packets sent to lower layer, vector(packetBytes)"
vector 233 asamrtnet.host[17].udp packetSent:vector(packetBytes) ETV
attr interpolationmode none
attr source packetSent
attr title "packets sent, vector(packetBytes)"
vector 234 asamrtnet.host[17].wlan[0].mac rcvdPkFromHl:vector(packetBytes) ETV
attr interpolationmode none
attr source packetReceivedFromUpper
attr title "packets received from higher layer, vector(packetBytes)"
vector 235 asamrtnet.host[17].wlan[0].mac.queue packetPushed:vector(packetBytes) ETV
attr interpolationmode none
attr title "packet pushed, vector(packetBytes)"
vector 236 asamrtnet.host[17].wlan[0].mac.queue queueLength:vector ETV
attr interpolationmode sample-hold
attr source "count(packetPushed) - count(packetPopped) - count(packetRemoved) - count(packetDropped)"
attr title "queue length, vector"
vector 237 asamrtnet.host[17].wlan[0].mac.queue packetPopped:vector(packetBytes) ETV
attr interpolationmode none
attr title "packet popped, vector(packetBytes)"
vector 238 asamrtnet.host[17].wlan[0].mac.queue queueingTime:vector ETV
attr interpolationmode none
attr source queueingTime(packetPopped)
attr title "queueing times, vector"
attr unit s
vector 239 asamrtnet.host[17].wlan[0].mac sentDownPk:vector(packetBytes) ETV
attr interpolationmode none
attr source packetSentToLower
attr title "packets sent to lower layer, vector(packetBytes)"
vector 240 asamrtnet.host[6].udp packetSent:vector(packetBytes) ETV
attr interpolationmode none
attr source packetSent
attr title "packets sent, vector(packetBytes)"
vector 241 asamrtnet.host[6].wlan[0].mac rcvdPkFromHl:vector(packetBytes) ETV
attr interpolationmode none
attr source packetReceivedFromUpper
attr title "packets received from higher layer, vector(packetBytes)"
vector 242 asamrtnet.host[6].wlan[0].mac.queue packetPushed:vector(packetBytes) ETV
attr interpolationmode none
attr title "packet pushed, vector(packetBytes)"
vector 243 asamrtnet.host[6].wlan[0].mac.queue queueLength:vector ETV
attr interpolationmode sample-hold
attr source "count(packetPushed) - count(packetPopped) - count(packetRemoved) - count(packetDropped)"
attr title "queue length, vector"
vector 244 asamrtnet.host[6].wlan[0].mac.queue packetPopped:vector(packetBytes) ETV
attr interpolationmode none
attr title "packet popped, vector(packetBytes)"
vector 245 asamrtnet.host[6].wlan[0].mac.queue queueingTime:vector ETV
attr interpolationmode none
attr source queueingTime(packetPopped)
attr title "queueing times, vector"
attr unit s
vector 246 asamrtnet.host[6].wlan[0].mac sentDownPk:vector(packetBytes) ETV
attr interpolationmode none
attr source packetSentToLower
attr title "packets sent to lower layer, vector(packetBytes)"
vector 247 asamrtnet.host[5].wlan[0].mac rcvdPkFromLl:vector(packetBytes) ETV
attr interpolationmode none
attr source packetReceivedFromLower
attr title "packets received from lower layer, vector(packetBytes)"
vector 248 asamrtnet.host[5].wlan[0].mac passedUpPk:vector(packetBytes) ETV
attr interpolationmode none
attr source packetSentToUpper
attr title "packets passed to higher layer, vector(packetBytes)"
vector 249 asamrtnet.host[5].udp packetReceived:vector(packetBytes) ETV
attr interpolationmode none
attr source packetReceived
attr title "packets received, vector(packetBytes)"
vector 250 asamrtnet.host[5].udp passedUpPk:vector(count) ETV
attr interpolationmode none
attr source packetSentToUpper
attr title "packets passed up, vector(count)"
vector 251 asamrtnet.host[7].wlan[0].mac rcvdPkFromLl:vector(packetBytes) ETV
attr interpolationmode none
attr source packetReceivedFromLower
attr title "packets received from lower layer, vector(packetBytes)"
vector 252 asamrtnet.host[7].wlan[0].mac passedUpPk:vector(packetBytes) ETV
attr interpolationmode none
attr source packetSentToUpper
attr title "packets passed to higher layer, vector(packetBytes)"
vector 253 asamrtnet.host[7].udp packetReceived:vector(packetBytes) ETV
attr interpolationmode none
attr source packetReceived
attr title "packets received, vector(packetBytes)"
vector 254 asamrtnet.host[7].udp passedUpPk:vector(count) ETV
attr interpolationmode none
attr source packetSentToUpper
attr title "packets passed up, vector(count)"
vector 255 asamrtnet.host[8].wlan[0].mac rcvdPkFromLl:vector(packetBytes) ETV
attr interpolationmode none
attr source packetReceivedFromLower
attr title "packets received from lower layer, vector(packetBytes)"
vector 256 asamrtnet.host[8].wlan[0].mac passedUpPk:vector(packetBytes) ETV
attr interpolationmode none
attr source packetSentToUpper
attr title "packets passed to higher layer, vector(packetBytes)"
vector 257 asamrtnet.host[8].udp packetReceived:vector(packetBytes) ETV
attr interpolationmode none
attr source packetReceived
attr title "packets received, vector(packetBytes)"
vector 258 asamrtnet.host[8].udp passedUpPk:vector(count) ETV
attr interpolationmode none
attr source packetSentToUpper
attr title "packets passed up, vector(count)"
vector 259 asamrtnet.host[2].udp packetSent:vector(packetBytes) ETV
attr interpolationmode none
attr source packetSent
attr title "packets sent, vector(packetBytes)"
vector 260 asamrtnet.host[2].wlan[0].mac rcvdPkFromHl:vector(packetBytes) ETV
attr interpolationmode none
attr source packetReceivedFromUpper
attr title "packets received from higher layer, vector(packetBytes)"
vector 261 asamrtnet.host[2].wlan[0].mac.queue packetPushed:vector(packetBytes) ETV
attr interpolationmode none
attr title "packet pushed, vector(packetBytes)"
vector 262 asamrtnet.host[2].wlan[0].mac.queue queueLength:vector ETV
attr interpolationmode sample-hold
attr source "count(packetPushed) - count(packetPopped) - count(packetRemoved) - count(packetDropped)"
attr title "queue length, vector"
vector 263 asamrtnet.host[2].wlan[0].mac.queue packetPopped:vector(packetBytes) ETV
attr interpolationmode none
attr title "packet popped, vector(packetBytes)"
vector 264 asamrtnet.host[2].wlan[0].mac.queue queueingTime:vector ETV
attr interpolationmode none
attr source queueingTime(packetPopped)
attr title "queueing times, vector"
attr unit s
vector 265 asamrtnet.host[2].wlan[0].mac sentDownPk:vector(packetBytes) ETV
attr interpolationmode none
attr source packetSentToLower
attr title "packets sent to lower layer, vector(packetBytes)"
vector 266 asamrtnet.host[8].udp packetSent:vector(packetBytes) ETV
attr interpolationmode none
attr source packetSent
attr title "packets sent, vector(packetBytes)"
vector 267 asamrtnet.host[8].wlan[0].mac rcvdPkFromHl:vector(packetBytes) ETV
attr interpolationmode none
attr source packetReceivedFromUpper
attr title "packets received from higher layer, vector(packetBytes)"
vector 268 asamrtnet.host[8].wlan[0].mac.queue packetPushed:vector(packetBytes) ETV
attr interpolationmode none
attr title "packet pushed, vector(packetBytes)"
vector 269 asamrtnet.host[8].wlan[0].mac.queue queueLength:vector ETV
attr interpolationmode sample-hold
attr source "count(packetPushed) - count(packetPopped) - count(packetRemoved) - count(packetDropped)"
attr title "queue length, vector"
vector 270 asamrtnet.host[8].wlan[0].mac.queue packetPopped:vector(packetBytes) ETV
attr interpolationmode none
attr title "packet popped, vector(packetBytes)"
vector 271 asamrtnet.host[8].wlan[0].mac.queue queueingTime:vector ETV
attr interpolationmode none
attr source queueingTime(packetPopped)
attr title "queueing times, vector"
attr unit s
vector 272 asamrtnet.host[8].wlan[0].mac sentDownPk:vector(packetBytes) ETV
attr interpolationmode none
attr source packetSentToLower
attr title "packets sent to lower layer, vector(packetBytes)"
vector 273 asamrtnet.host[5].udp packetSent:vector(packetBytes) ETV
attr interpolationmode none
attr source packetSent
attr title "packets sent, vector(packetBytes)"
vector 274 asamrtnet.host[5].wlan[0].mac rcvdPkFromHl:vector(packetBytes) ETV
attr interpolationmode none
attr source packetReceivedFromUpper
attr title "packets received from higher layer, vector(packetBytes)"
vector 275 asamrtnet.host[5].wlan[0].mac.queue packetPushed:vector(packetBytes) ETV
attr interpolationmode none
attr title "packet pushed, vector(packetBytes)"
vector 276 asamrtnet.host[5].wlan[0].mac.queue queueLength:vector ETV
attr interpolationmode sample-hold
attr source "count(packetPushed) - count(packetPopped) - count(packetRemoved) - count(packetDropped)"
attr title "queue length, vector"
vector 277 asamrtnet.host[5].wlan[0].mac.queue packetPopped:vector(packetBytes) ETV
attr interpolationmode none
attr title "packet popped, vector(packetBytes)"
vector 278 asamrtnet.host[5].wlan[0].mac.queue queueingTime:vector ETV
attr interpolationmode none
attr source queueingTime(packetPopped)
attr title "queueing times, vector"
attr unit s
vector 279 asamrtnet.host[5].wlan[0].mac sentDownPk:vector(packetBytes) ETV
attr interpolationmode none
attr source packetSentToLower
attr title "packets sent to lower layer, vector(packetBytes)"
vector 280 asamrtnet.host[7].udp packetSent:vector(packetBytes) ETV
attr interpolationmode none
attr source packetSent
attr title "packets sent, vector(packetBytes)"
vector 281 asamrtnet.host[7].wlan[0].mac rcvdPkFromHl:vector(packetBytes) ETV
attr interpolationmode none
attr source packetReceivedFromUpper
attr title "packets received from higher layer, vector(packetBytes)"
vector 282 asamrtnet.host[7].wlan[0].mac.queue packetPushed:vector(packetBytes) ETV
attr interpolationmode none
attr title "packet pushed, vector(packetBytes)"
vector 283 asamrtnet.host[7].wlan[0].mac.queue queueLength:vector ETV
attr interpolationmode sample-hold
attr source "count(packetPushed) - count(packetPopped) - count(packetRemoved) - count(packetDropped)"
attr title "queue length, vector"
vector 284 asamrtnet.host[7].wlan[0].mac.queue packetPopped:vector(packetBytes) ETV
attr interpolationmode none
attr title "packet popped, vector(packetBytes)"
vector 285 asamrtnet.host[7].wlan[0].mac.queue queueingTime:vector ETV
attr interpolationmode none
attr source queueingTime(packetPopped)
attr title "queueing times, vector"
attr unit s
vector 286 asamrtnet.host[7].wlan[0].mac sentDownPk:vector(packetBytes) ETV
attr interpolationmode none
attr source packetSentToLower
attr title "packets sent to lower layer, vector(packetBytes)"
vector 287 asamrtnet.host[14].wlan[0].mac packetDropNotAddressedToUs:vector(packetBytes) ETV
attr interpolationmode none
attr source packetDropReasonIsNotAddressedToUs(packetDropped)
attr title "packet drop: not addressed to us, vector(packetBytes)"
vector 288 asamrtnet.host[10].wlan[0].mac packetDropNotAddressedToUs:vector(packetBytes) ETV
attr interpolationmode none
attr source packetDropReasonIsNotAddressedToUs(packetDropped)
attr title "packet drop: not addressed to us, vector(packetBytes)"
vector 289 asamrtnet.host[9].wlan[0].mac packetDropNotAddressedToUs:vector(packetBytes) ETV
attr interpolationmode none
attr source packetDropReasonIsNotAddressedToUs(packetDropped)
attr title "packet drop: not addressed to us, vector(packetBytes)"
vector 290 asamrtnet.host[16].wlan[0].mac packetDropNotAddressedToUs:vector(packetBytes) ETV
attr interpolationmode none
attr source packetDropReasonIsNotAddressedToUs(packetDropped)
attr title "packet drop: not addressed to us, vector(packetBytes)"
vector 291 asamrtnet.host[3].ipv4.arp arpRequestSent:vector(packetBytes) ETV
attr source arpRequestSent
attr title "ARP request sent, vector(packetBytes)"
vector 292 asamrtnet.host[10].ipv4.arp arpReplySent:vector(packetBytes) ETV
attr source arpReplySent
attr title "ARP replies sent, vector(packetBytes)"
vector 293 asamrtnet.host[15].wlan[0].mac packetDropNotAddressedToUs:vector(packetBytes) ETV
attr interpolationmode none
attr source packetDropReasonIsNotAddressedToUs(packetDropped)
attr title "packet drop: not addressed to us, vector(packetBytes)"
vector 294 asamrtnet.host[19].wlan[0].mac packetDropNotAddressedToUs:vector(packetBytes) ETV
attr interpolationmode none
attr source packetDropReasonIsNotAddressedToUs(packetDropped)
attr title "packet drop: not addressed to us, vector(packetBytes)"
vector 295 asamrtnet.host[18].wlan[0].mac packetDropNotAddressedToUs:vector(packetBytes) ETV
attr interpolationmode none
attr source packetDropReasonIsNotAddressedToUs(packetDropped)
attr title "packet drop: not addressed to us, vector(packetBytes)"
vector 296 asamrtnet.host[1].wlan[0].mac packetDropNotAddressedToUs:vector(packetBytes) ETV
attr interpolationmode none
attr source packetDropReasonIsNotAddressedToUs(packetDropped)
attr title "packet drop: not addressed to us, vector(packetBytes)"
vector 297 asamrtnet.host[10].ipv4.arp arpRequestSent:vector(packetBytes) ETV
attr source arpRequestSent
attr title "ARP request sent, vector(packetBytes)"
vector 298 asamrtnet.host[15].ipv4.arp arpReplySent:vector(packetBytes) ETV
attr source arpReplySent
attr title "ARP replies sent, vector(packetBytes)"
vector 299 asamrtnet.host[4].wlan[0].mac packetDropNotAddressedToUs:vector(packetBytes) ETV
attr interpolationmode none
attr source packetDropReasonIsNotAddressedToUs(packetDropped)
attr title "packet drop: not addressed to us, vector(packetBytes)"
vector 300 asamrtnet.host[0].wlan[0].mac packetDropNotAddressedToUs:vector(packetBytes) ETV
attr interpolationmode none
attr source packetDropReasonIsNotAddressedToUs(packetDropped)
attr title "packet drop: not addressed to us, vector(packetBytes)"
vector 301 asamrtnet.host[3].wlan[0].mac packetDropNotAddressedToUs:vector(packetBytes) ETV
attr interpolationmode none
attr source packetDropReasonIsNotAddressedToUs(packetDropped)
attr title "packet drop: not addressed to us, vector(packetBytes)"
vector 302 asamrtnet.host[15].ipv4.arp arpRequestSent:vector(packetBytes) ETV
attr source arpRequestSent
attr title "ARP request sent, vector(packetBytes)"
vector 303 asamrtnet.host[0].ipv4.arp arpReplySent:vector(packetBytes) ETV
attr source arpReplySent
attr title "ARP replies sent, vector(packetBytes)"
vector 304 asamrtnet.host[12].ipv4.arp arpReplySent:vector(packetBytes) ETV
attr source arpReplySent
attr title "ARP replies sent, vector(packetBytes)"
vector 305 asamrtnet.host[12].ipv4.arp arpRequestSent:vector(packetBytes) ETV
attr source arpRequestSent
attr title "ARP request sent, vector(packetBytes)"
vector 306 asamrtnet.host[0].app[0] pingRxSeq:vector ETV
attr interpolationmode none
attr title "ping rx seq, vector"
vector 307 asamrtnet.host[0].app[0] rtt:vector ETV
attr interpolationmode none
attr title "ping round-trip time, vector"
attr unit s
vector 308 asamrtnet.host[11].ipv4.arp arpReplySent:vector(packetBytes) ETV
attr source arpReplySent
attr title "ARP replies sent, vector(packetBytes)"
vector 309 asamrtnet.host[11].ipv4.arp arpRequestSent:vector(packetBytes) ETV
attr source arpRequestSent
attr title "ARP request sent, vector(packetBytes)"
vector 310 asamrtnet.host[1].ipv4.arp arpReplySent:vector(packetBytes) ETV
attr source arpReplySent
attr title "ARP replies sent, vector(packetBytes)"
0	0	0	0
0	0	0	0
0	0	0	4
1	0	0	0
1	0	0	0
1	0	0	4
2	0	0	0
2	0	0	0
2	0	0	4
3	0	0	0
3	0	0	0
3	0	0	4
4	0	0	0
4	0	0	0
4	0	0	4
5	0	0	0
5	0	0	0
5	0	0	4
6	0	0	0
6	0	0	0
6	0	0	4
7	0	0	0
7	0	0	0
7	0	0	4
8	0	0	0
8	0	0	0
8	0	0	4
9	0	0	0
9	0	0	0
9	0	0	4
10	0	0	0
10	0	0	0
10	0	0	4
11	0	0	0
11	0	0	0
11	0	0	4
12	0	0	0
12	0	0	0
12	0	0	4
13	0	0	0
13	0	0	0
13	0	0	4
14	0	0	0
14	0	0	0
14	0	0	4
15	0	0	0
15	0	0	0
15	0	0	4
16	0	0	0
16	0	0	0
16	0	0	4
17	0	0	0
17	0	0	0
17	0	0	4
18	0	0	0
18	0	0	0
18	0	0	4
19	0	0	0
19	0	0	0
19	0	0	4
20	0	0	1
20	737	3.202142335711	3
20	757	3.202490335711	1
20	791	3.202788814286	3
20	819	3.203136814286	1
20	961	3.521341491701	3
20	989	3.521689491701	1
20	1015	3.522905706642	3
20	1035	3.523253706642	1
20	1785	4.000344585443	3
20	1805	4.000692585443	1
20	1838	4.00488043248	3
20	1862	4.00522843248	1
20	3412	4.536043427208	3
20	3434	4.536295427208	1
20	3517	4.541414450846	3
20	3540	4.541666450846	1
20	3595	4.541919689352	3
20	3630	4.542251689352	1
20	3690	4.542728927851	3
20	3745	4.543204927851	1
20	3768	4.543205551794	3
20	3833	4.543681551794	1
20	4579	5.195731240615	3
20	4615	5.196207240615	1
20	5212	6.012450326699	3
20	5303	6.012926326699	1
20	5343	6.012926995977	3
20	5373	6.013402995977	1
20	5545	6.113403665254	3
20	5674	6.113879665254	1
20	5750	6.195731229923	3
20	5786	6.196207229923	1
20	7358	6.530135424425	3
20	7406	6.530483424425	1
20	7487	6.531748303277	3
20	7508	6.532080303277	1
20	8028	6.542742190025	3
20	8050	6.543218190025	1
20	8270	7.195731219282	3
20	8306	7.196207219282	1
20	8583	7.198590906393	3
20	8605	7.199066906393	1
20	8869	8.195731208693	3
20	8905	8.196207208693	1
20	9182	8.198590895879	3
20	9204	8.199066895879	1
20	9468	9.195731198157	3
20	9504	9.196207198157	1
20	9781	9.198590885593	3
20	9803	9.199066885593	1
20	10168	10.195731187628	3
20	10204	10.196207187628	1
21	0	0	1
21	666	3.198218232299	2
21	686	3.198566232299	1
21	906	3.518267826069	2
21	926	3.518615826069	1
21	1694	3.999712874226	2
21	1752	4.000060874226	1
21	3544	4.541666450846	2
21	3583	4.541918450846	1
21	3637	4.542251689352	2
21	3675	4.542727689352	1
21	3680	4.542728308603	2
21	3739	4.543204308603	1
21	4548	5.195254009217	2
21	4568	5.195730009217	1
21	5719	6.195254009217	2
21	5739	6.195730009217	1
21	7414	6.530483424425	2
21	7455	6.530815424425	1
21	8239	7.195254009217	2
21	8259	7.195730009217	1
21	8838	8.195254009217	2
21	8858	8.195730009217	1
21	9437	9.195254009217	2
21	9457	9.195730009217	1
21	10136	10.195254009217	2
21	10157	10.195730009217	1
22	0	0	1
22	1141	3.527762527982	3
22	1169	3.528110527982	1
22	1236	3.528196866437	3
22	1359	3.528544866437	2
22	1397	3.528615260372	1
22	1489	3.529392694055	3
22	1545	3.529740694055	1
22	2036	4.009329172331	3
22	2116	4.009677172331	2
22	2182	4.009688712238	1
22	2273	4.010289535304	3
22	2309	4.010637535304	1
22	2360	4.011001771624	3
22	2420	4.011349771624	1
22	2465	4.011621301923	3
22	2521	4.011969301923	2
22	2555	4.011989727917	1
22	2586	4.012046519263	3
22	2606	4.012394519263	1
22	3083	4.528363270385	3
22	3120	4.528615270385	1
22	3201	4.53078922049	3
22	3225	4.53104122049	1
22	3298	4.531294710815	3
22	3327	4.531626710815	1
22	3867	4.543682049066	3
22	3927	4.544158049066	1
22	3965	4.544158794309	3
22	4002	4.544634794309	1
22	4200	5.009930128149	3
22	4234	5.010182128149	1
22	4356	5.010991561889	3
22	4406	5.011243561889	1
22	4682	5.196684371705	3
22	4711	5.197160371705	1
22	4962	6.010991567659	3
22	4988	6.011243567659	1
22	5065	6.011496906215	3
22	5094	6.011972906215	1
22	5114	6.011973575495	3
22	5165	6.012449575495	1
22	5204	6.012450244779	3
22	5279	6.012782244779	1
22	5425	6.112450245357	3
22	5448	6.112926245357	1
22	5499	6.113151999248	3
22	5572	6.113515999248	1
22	5853	6.196684371289	3
22	5882	6.197160371289	1
22	5990	6.204167049731	3
22	6070	6.204515049731	2
22	6139	6.204810329293	1
22	6163	6.205855194434	3
22	6219	6.206203194434	2
22	6261	6.206209106544	3
22	6317	6.206557106544	1
22	6363	6.20675222252	3
22	6387	6.20710022252	1
22	6573	6.522003088016	3
22	6621	6.522351088016	2
22	6671	6.522477001039	1
22	6701	6.524099396731	3
22	6761	6.524447396731	2
22	6788	6.524611595547	3
22	6876	6.524959595547	2
22	6915	6.525014944237	3
22	6975	6.525362944237	1
22	7599	6.536204706737	3
22	7623	6.536456706737	1
22	7713	6.540474704589	3
22	7738	6.540726704589	1
22	7815	6.540979737938	3
22	7847	6.541311737938	1
22	7918	6.541788771292	3
22	7951	6.542264771292	1
22	8379	7.196684457816	3
22	8404	7.197160457816	1
22	8475	7.19763749641	3
22	8508	7.19811349641	1
22	8979	8.196684452558	3
22	9003	8.197160452558	1
22	9075	8.197637499234	3
22	9107	8.198113499234	1
22	9578	9.196684447416	3
22	9602	9.197160447416	1
22	9674	9.197637502282	3
22	9706	9.198113502282	1
22	10280	10.196684441179	3
23	0	0	1
23	1177	3.528110527982	2
23	1253	3.528362527982	1
23	2124	4.009677172331	2
23	2199	4.009929172331	1
23	3040	4.528110527982	2
23	3060	4.528362527982	1
23	3124	4.528615270385	2
23	3164	4.528947270385	1
23	4152	5.009677172331	2
23	4172	5.009929172331	1
23	4240	5.010182128149	2
23	4279	5.010514128149	1
23	4288	5.01051460606	2
23	4329	5.01099060606	1
23	4338	5.010991083973	2
23	4449	5.011467083973	1
23	4717	5.197160371705	2
23	4758	5.197636371705	1
23	5580	6.113515999248	2
23	5623	6.113815999248	1
23	5912	6.201510432015	2
23	5932	6.201858432015	1
23	6499	6.521063017167	2
23	6519	6.521411017167	1
23	7742	6.540726704589	2
23	7793	6.540978704589	1
23	7853	6.541311737938	2
23	7896	6.541787737938	1
23	8410	7.197160457816	2
23	8452	7.197636457816	1
23	9009	8.197160452558	2
23	9051	8.197636452558	1
23	9608	9.197160447416	2
23	9650	9.197636447416	1
24	0	0	1
24	1337	3.528462782649	3
24	1446	3.528810782649	1
24	2081	4.009585290049	3
24	2228	4.009933290049	1
24	2658	4.014113991441	3
24	2678	4.014461991441	1
24	2746	4.014564222648	3
24	2830	4.014912222648	2
24	2857	4.01524651316	1
24	2882	4.017703779043	3
24	2910	4.018051779043	1
24	7069	6.527200878792	3
24	7113	6.527548878792	1
24	7293	6.529917215706	3
24	7377	6.530265215706	1
25	0	0	1
25	2721	4.014561273215	2
25	2789	4.014909273215	1
25	7268	6.529622188498	2
25	7312	6.529970188498	1
26	0	0	1
26	1073	3.525926488763	3
26	1117	3.526274488763	1
26	1195	3.528110894176	3
26	1260	3.528362894176	2
26	1316	3.528393009422	3
26	1425	3.528741009422	1
26	1486	3.529392329701	3
26	1530	3.529740329701	1
26	1899	4.006592457784	3
26	1943	4.006940457784	1
26	1968	4.008857908404	3
26	2000	4.009205908404	1
26	2033	4.009328805839	3
26	2101	4.009676805839	1
26	2147	4.00967754093	3
26	2206	4.00992954093	1
26	2362	4.01100179195	3
26	2430	4.01134979195	1
26	2491	4.011642048638	3
26	2559	4.011990048638	1
26	2587	4.012046648975	3
26	2611	4.012394648975	1
26	3043	4.528110899183	3
26	3067	4.528362899183	1
26	3133	4.528615641589	3
26	3169	4.528947641589	1
26	3255	4.531042339598	3
26	3286	4.531294339598	1
26	3363	4.535790929166	3
26	3397	4.536042929166	1
26	3457	4.536296177065	3
26	3492	4.536628177065	1
26	3779	4.543205677787	3
26	3849	4.543681677787	1
26	3888	4.543682423027	3
26	3947	4.544158423027	1
26	4155	5.009677545961	3
26	4179	5.009929545961	1
26	4190	5.009929757199	3
26	4228	5.010181757199	1
26	4251	5.010182501782	3
26	4284	5.010514501782	1
26	4300	5.010514979695	3
26	4334	5.010990979695	1
26	4344	5.010991190934	3
26	4399	5.011243190934	2
26	4431	5.011244495974	3
26	4487	5.011496495974	1
26	4638	5.196207997074	3
26	4670	5.196683997074	1
26	4728	5.197160746338	3
26	4763	5.197636746338	1
26	4959	6.01099118999	3
26	4979	6.01124318999	1
26	5017	6.011244501391	3
26	5054	6.011496501391	1
26	5056	6.011496528543	3
26	5088	6.011972528543	1
26	5106	6.01197319782	3
26	5159	6.01244919782	2
26	5188	6.012449839946	1
26	5191	6.012449867101	3
26	5273	6.012781867101	2
26	5322	6.012926509227	1
26	5422	6.112449867018	3
26	5442	6.112925867018	1
26	5473	6.112927179027	3
26	5531	6.113403179027	2
26	5565	6.113515620905	1
26	5595	6.113516378901	3
26	5634	6.113816378901	1
26	5809	6.196207991179	3
26	5841	6.196683991179	1
26	5915	6.201510812152	3
26	5943	6.201858812152	1
26	6160	6.205854815481	3
26	6204	6.206202815481	2
26	6262	6.206209261335	3
26	6322	6.206557261335	1
26	6367	6.206752548608	3
26	6407	6.207100548608	1
26	6502	6.521063399062	3
26	6530	6.521411399062	1
26	6577	6.522003414451	3
26	6641	6.522351414451	1
26	6726	6.524322166427	3
26	6814	6.524670166427	2
26	6854	6.524805808849	3
26	6934	6.525153808849	1
26	7095	6.527280159978	3
26	7167	6.527628159978	1
26	7203	6.528464162311	3
26	7247	6.528812162311	1
26	7550	6.535952234576	3
26	7584	6.536204234576	1
26	7603	6.536204723767	3
26	7629	6.536456723767	1
26	7654	6.536457641523	3
26	7686	6.536789641523	1
26	7716	6.540474721594	3
26	7749	6.540726721594	1
26	7767	6.540727086593	3
26	7798	6.540979086593	1
26	7819	6.54097975494	3
26	7858	6.54131175494	1
26	7871	6.541312119945	3
26	7901	6.541788119945	1
26	7922	6.541788788289	3
26	7957	6.542264788289	1
26	7982	6.542265706033	3
26	8014	6.542741706033	1
26	8329	7.196207985334	3
26	8364	7.196683985334	1
26	8382	7.19668447094	3
26	8413	7.19716047094	1
26	8426	7.197160843445	3
26	8457	7.197636843445	1
26	8478	7.197637509529	3
26	8512	7.198113509529	1
26	8537	7.198114425815	3
26	8569	7.198590425815	1
26	8928	8.19620797954	3
26	8963	8.19668397954	1
26	8980	8.196684459723	3
26	9010	8.197160459723	1
26	9025	8.19716084374	3
26	9056	8.19763684374	1
26	9076	8.197637506393	3
26	9109	8.198113506393	1
26	9136	8.198114420506	3
26	9168	8.198590420506	1
26	9526	9.196207973798	3
26	9560	9.196683973798	1
26	9579	9.196684448568	3
26	9609	9.197160448568	1
26	9624	9.197160844184	3
26	9655	9.197636844184	1
26	9675	9.197637503428	3
26	9708	9.198113503428	1
26	9734	9.198114415424	3
26	9765	9.198590415424	1
26	10225	10.196207968118	3
26	10258	10.196683968118	1
26	10278	10.196684435817	3
27	0	0	1
27	1138	3.527762161789	2
27	1158	3.528110161789	1
27	1264	3.528362894176	2
27	1392	3.528614894176	1
27	2056	4.009340343641	2
27	2175	4.009688343641	1
27	3071	4.528362899183	2
27	3115	4.528614899183	1
27	3198	4.530788849276	2
27	3218	4.531040849276	1
27	3290	4.531294339598	2
27	3322	4.531626339598	1
27	3854	4.543681677787	2
27	3922	4.544157677787	1
27	3953	4.544158423027	2
27	3997	4.544634423027	1
27	4674	5.196683997074	2
27	4706	5.197159997074	1
27	5845	6.196683991179	2
27	5877	6.197159991179	1
27	6010	6.204226852352	2
27	6098	6.204574852352	1
27	6912	6.52501456232	2
27	6968	6.52536256232	1
28	0	0	1
28	667	3.198218310605	3
28	687	3.198566310605	1
28	789	3.202788746147	3
28	809	3.203136746147	1
28	907	3.518267902321	3
28	927	3.518615902321	1
28	959	3.521341425671	3
28	979	3.521689425671	1
28	1695	3.999712947397	3
28	1753	4.000060947397	1
28	1837	4.004880369646	3
28	1857	4.005228369646	1
28	3408	4.536043367882	3
28	3432	4.536295367882	1
28	3516	4.541414391556	3
28	3537	4.541666391556	1
28	3548	4.541666520561	3
28	3584	4.541918520561	1
28	3593	4.541919630065	3
28	3628	4.542251630065	1
28	3640	4.542251759063	3
28	3676	4.542727759063	1
28	3684	4.542728378311	3
28	3741	4.543204378311	2
28	3743	4.543204868569	1
28	3765	4.543205492516	3
28	3831	4.543681492516	1
28	4549	5.195254075133	3
28	4569	5.195730075133	1
28	4578	5.195731185681	3
28	4613	5.196207185681	1
28	5208	6.012450277313	3
28	5301	6.012926277313	1
28	5338	6.012926946594	3
28	5371	6.013402946594	1
28	5541	6.113403616555	3
28	5672	6.113879616555	1
28	5720	6.195254070622	3
28	5740	6.195730070622	1
28	5749	6.195731181784	3
28	5784	6.196207181784	1
28	7357	6.530135378564	3
28	7401	6.530483378564	1
28	7420	6.530483484405	3
28	7456	6.530815484405	1
28	7486	6.531748257427	3
28	7506	6.532080257427	1
28	8024	6.542742144249	3
28	8048	6.543218144249	1
28	8240	7.195254066522	3
28	8260	7.195730066522	1
28	8269	7.195731177963	3
28	8304	7.196207177963	1
28	8579	7.198590865093	3
28	8603	7.199066865093	1
28	8839	8.195254062928	3
28	8859	8.195730062928	1
28	8868	8.195731174217	3
28	8903	8.196207174217	1
28	9178	8.198590861423	3
28	9202	8.199066861423	1
28	9438	9.195254059947	3
28	9458	9.195730059947	1
28	9467	9.195731170547	3
28	9502	9.196207170547	1
28	9777	9.198590858003	3
28	9801	9.199066858003	1
28	10137	10.195254057255	3
28	10158	10.195730057255	1
28	10167	10.195731166889	3
28	10202	10.196207166889	1
29	0	0	1
29	736	3.20214225743	2
29	756	3.20249025743	1
29	1014	3.52290563042	2
29	1034	3.52325363042	1
29	1784	4.000344512276	2
29	1804	4.000692512276	1
30	0	0	1
30	2659	4.014114238118	3
30	2683	4.014462238118	1
30	2724	4.014561901769	3
30	2800	4.014909901769	2
30	2836	4.014912305695	1
30	2880	4.017703231394	3
30	2900	4.018051231394	1
30	7271	6.529622844357	3
30	7323	6.529970844357	2
30	7383	6.530265451143	1
31	0	0	1
31	2769	4.014897884603	2
31	2854	4.015245884603	1
32	0	0	1
32	1338	3.528462895195	3
32	1451	3.528810895195	1
32	2082	4.009585401848	3
32	2233	4.009933401848	1
32	2722	4.014561468967	3
32	2790	4.014909468967	2
32	2856	4.015246327033	1
32	2881	4.017703584537	3
32	2905	4.018051584537	1
32	7070	6.527200993374	3
32	7118	6.527548993374	1
32	7269	6.529622408713	3
32	7313	6.529970408713	1
33	0	0	1
33	2657	4.014113795692	2
33	2677	4.014461795692	1
33	7292	6.529916995488	2
33	7376	6.530264995488	1
34	0	0	1
34	2660	4.014114260431	3
34	2688	4.014462260431	1
34	2725	4.014561932434	3
34	2805	4.014909932434	2
34	2855	4.01524599616	1
34	7273	6.529622854091	3
34	7333	6.529970854091	2
34	7382	6.530265444771	1
35	0	0	1
35	2879	4.017703119814	2
35	2899	4.018051119814	1
36	0	0	1
36	2662	4.014114469841	3
36	2698	4.014462469841	1
36	2726	4.014561934026	3
36	2810	4.014909934026	2
36	2858	4.015246628463	1
36	7272	6.52962285007	3
36	7328	6.52997085007	2
36	7385	6.530265694966	1
37	0	0	1
37	2745	4.014563561837	2
37	2829	4.014911561837	1
38	0	0	1
38	1206	3.528111154048	3
38	1273	3.528363154048	2
38	1342	3.528463194751	3
38	1463	3.528811194751	1
38	2086	4.009585698039	3
38	2245	4.009933698039	1
38	2269	4.010288934724	3
38	2289	4.010636934724	1
38	2359	4.011001757798	3
38	2415	4.011349757798	1
38	2486	4.01164168566	3
38	2550	4.01198968566	1
38	2591	4.012047126442	3
38	2631	4.012395126442	1
38	3046	4.528111147867	3
38	3079	4.528363147867	1
38	3141	4.528615890267	3
38	3178	4.528947890267	1
38	4158	5.009677789275	3
38	4191	5.009929789275	1
38	4257	5.01018274509	3
38	4295	5.01051474509	1
38	4306	5.010515222999	3
38	4346	5.010991222999	1
38	4361	5.010991700909	3
38	4460	5.011467700909	1
38	4734	5.197160987626	3
38	4770	5.197636987626	1
38	5601	6.113516610184	3
38	5649	6.113816610184	1
38	5918	6.201511042473	3
38	5958	6.201859042473	1
38	6035	6.204461746126	3
38	6131	6.204809746126	1
38	6185	6.205863997331	3
38	6282	6.206211997331	2
38	6338	6.206557699144	1
38	6362	6.206752153257	3
38	6382	6.207100153257	1
38	6505	6.521063625892	3
38	6545	6.521411625892	1
38	6572	6.522003015845	3
38	6616	6.522351015845	1
38	6697	6.524098816046	3
38	6741	6.524446816046	2
38	6806	6.524670130917	1
38	6858	6.524806240417	3
38	6946	6.525154240417	1
38	7074	6.527201275484	3
38	7138	6.527549275484	1
38	7598	6.536204688354	3
38	7621	6.536456688354	1
38	7712	6.540474686215	3
38	7735	6.540726686215	1
38	7771	6.540727313208	3
38	7807	6.540979313208	1
38	7813	6.540979719565	3
38	7845	6.541311719565	1
38	7875	6.541312346554	3
38	7910	6.541788346554	1
38	7916	6.541788752921	3
38	7949	6.542264752921	1
38	8377	7.196684440938	3
38	8400	7.197160440938	1
38	8430	7.197161062882	3
38	8466	7.197637062882	1
38	8472	7.197637479535	3
38	8504	7.198113479535	1
38	8976	8.196684438045	3
38	8999	8.197160438045	1
38	9029	8.197161052233	3
38	9065	8.197637052233	1
38	9072	8.197637484723	3
38	9103	8.198113484723	1
38	9576	9.196684435363	3
38	9600	9.197160435363	1
38	9628	9.197161041725	3
38	9664	9.197637041725	1
38	9672	9.197637490231	3
38	9704	9.198113490231	1
38	10277	10.196684432368	3
39	0	0	1
39	2461	4.011620678847	2
39	2505	4.011968678847	1
39	5986	6.204166439287	2
39	6054	6.204514439287	1
39	6595	6.52212839232	2
39	6663	6.52247639232	1
40	0	0	1
40	790	3.202788812066	3
40	814	3.203136812066	1
40	960	3.52134149113	3
40	984	3.52168949113	1
40	1145	3.527762900748	3
40	1196	3.528110900748	1
40	1242	3.528197072039	3
40	1373	3.528545072039	2
40	1462	3.528811149868	1
40	1491	3.529392882122	3
40	1555	3.529740882122	2
40	1583	3.529852611229	1
40	1839	4.004880434406	3
40	1867	4.005228434406	1
40	1967	4.008857880923	3
40	1995	4.009205880923	1
40	2038	4.009329359642	3
40	2131	4.009677359642	2
40	2244	4.009933655306	1
40	2335	4.010899741565	3
40	2383	4.011247741565	2
40	2446	4.011349975036	1
40	3093	4.528363644328	3
40	3134	4.528615644328	1
40	3205	4.530789594436	3
40	3237	4.531041594436	1
40	3308	4.531295084761	3
40	3335	4.531627084761	1
40	3413	4.536043431871	3
40	3436	4.536295431871	1
40	3518	4.541414455537	3
40	3545	4.541666455537	1
40	3596	4.541919694046	3
40	3638	4.542251694046	1
40	3691	4.542728932549	3
40	3750	4.543204932549	1
40	3769	4.543205556495	3
40	3835	4.543681556495	1
40	3889	4.543682423027	3
40	3948	4.544158423027	1
40	3978	4.54415916827	3
40	4013	4.54463516827	1
40	4204	5.009930314065	3
40	4244	5.010182314065	1
40	4362	5.010991747805	3
40	4410	5.011243747805	1
40	4581	5.195731248649	3
40	4617	5.196207248649	1
40	4692	5.196684745499	3
40	4726	5.197160745499	1
40	4964	6.010991753249	3
40	4994	6.011243753249	1
40	5072	6.011497091804	3
40	5098	6.011973091804	1
40	5119	6.011973761085	3
40	5175	6.012449761085	1
40	5214	6.012450338934	3
40	5308	6.012926338934	1
40	5344	6.012927008215	3
40	5378	6.013403008215	1
40	5427	6.112450430919	3
40	5452	6.112926430919	1
40	5501	6.11315218481	3
40	5583	6.11351618481	2
40	5679	6.113879678007	1
40	5752	6.195731243098	3
40	5788	6.196207243098	1
40	5863	6.196684739259	3
40	5893	6.197160739259	1
40	6017	6.20422760043	3
40	6113	6.20457560043	1
40	6165	6.20585537997	3
40	6229	6.20620337997	2
40	6305	6.206212205847	1
40	6729	6.524322336237	3
40	6829	6.524670336237	2
40	6886	6.524959781002	1
40	6919	6.525015310293	3
40	6991	6.525363310293	1
40	7014	6.525490185749	3
40	7038	6.525838185749	1
40	7073	6.527201243278	3
40	7133	6.527549243278	2
40	7172	6.527628185992	1
40	7359	6.530135439314	3
40	7415	6.530483439314	1
40	7488	6.531748318174	3
40	7510	6.532080318174	1
40	7606	6.536204893554	3
40	7635	6.536456893554	1
40	7719	6.540474891373	3
40	7759	6.540726891373	1
40	7822	6.540979924718	3
40	7865	6.541311924718	1
40	7925	6.541788958066	3
40	7963	6.542264958066	1
40	8029	6.542742204978	3
40	8055	6.543218204978	1
40	8272	7.195731237573	3
40	8308	7.196207237573	1
40	8385	7.196684639467	3
40	8420	7.197160639467	1
40	8481	7.197637678055	3
40	8518	7.198113678055	1
40	8584	7.198590924699	3
40	8610	7.199066924699	1
40	8871	8.195731232073	3
40	8907	8.196207232073	1
40	8984	8.196684626371	3
40	9019	8.197160626371	1
40	9080	8.19763767304	3
40	9117	8.19811367304	1
40	9183	8.198590919274	3
40	9209	8.199066919274	1
40	9470	9.195731226601	3
40	9506	9.196207226601	1
40	9583	9.196684613369	3
40	9618	9.197160613369	1
40	9679	9.197637668227	3
40	9716	9.198113668227	1
40	9782	9.198590914051	3
40	9808	9.199066914051	1
40	10170	10.195731221121	3
40	10206	10.196207221121	1
40	10283	10.196684601218	3
41	0	0	1
41	1066	3.525925749816	2
41	1086	3.526273749816	1
41	1892	4.006591715879	2
41	1912	4.006939715879	1
41	3241	4.531041594436	2
41	3273	4.531293594436	1
41	3356	4.535790183975	2
41	3376	4.536042183975	1
41	3440	4.536295431871	2
41	3476	4.536627431871	1
41	3755	4.543204932549	2
41	3828	4.543680932549	1
41	3851	4.543681677787	2
41	3921	4.544157677787	1
41	4414	5.011243747805	2
41	4476	5.011495747805	1
41	4621	5.196207248649	2
41	4657	5.196683248649	1
41	4998	6.011243753249	2
41	5035	6.011495753249	1
41	5103	6.011973091804	2
41	5158	6.012449091804	1
41	5182	6.012449761085	2
[...]
184	4010	4.544634954092	107
184	4242	5.010182214913	51
184	4293	5.010514638801	71
184	4343	5.010991116713	107
184	4459	5.011467594628	107
184	4665	5.196683957291	107
184	4722	5.19716053333	107
184	4769	5.197636883085	107
184	5049	6.01149645874	51
184	5097	6.011972991169	107
184	5169	6.012449660449	107
184	5282	6.012782329732	71
184	5451	6.112926330129	107
184	5526	6.113403136018	107
184	5836	6.196683947877	107
184	5890	6.197160525516	107
184	8009	6.542741661516	107
184	8564	7.198590378996	107
184	9163	8.198590370183	107
184	9762	9.198590361605	107
185	1402	3.528615557964	51
185	3131	4.528615569683	51
185	3168	4.528947618201	71
185	3334	4.531627010118	71
185	3941	4.544158348391	107
185	4012	4.544635093634	107
185	4247	5.01018241403	51
185	4283	5.010514477406	71
185	4333	5.010990955318	107
185	4453	5.011467433233	107
185	4724	5.197160671539	107
185	4762	5.197636721284	107
185	5105	6.011973190012	107
185	5190	6.012449859292	107
185	5285	6.012782528574	71
185	5458	6.11292652891	107
185	5892	6.197160666652	107
185	7620	6.536456670058	51
185	7797	6.540979053953	51
185	7844	6.54131170124	71
185	7900	6.541788087302	107
185	7948	6.542264734591	107
185	8399	7.197160418501	107
185	8456	7.197636807159	107
185	8503	7.198113457092	107
185	8998	8.197160409224	107
185	9055	8.197636801977	107
185	9102	8.198113455896	107
185	9597	9.197160400028	107
185	9654	9.197636797041	107
185	9701	9.19811345489	107
186	1447	3.528810782649	75
186	2229	4.009933290049	75
186	2679	4.014461991441	75
186	2831	4.014912222648	75
186	2911	4.018051779043	75
186	7114	6.527548878792	75
186	7378	6.530265215706	75
187	1447	3.528810782649	52
187	2229	4.009933290049	52
187	2679	4.014461991441	52
187	2831	4.014912222648	52
187	2911	4.018051779043	52
187	7114	6.527548878792	52
187	7378	6.530265215706	52
188	1449	3.528810782649	32
188	2231	4.009933290049	32
188	2681	4.014461991441	32
188	2833	4.014912222648	32
188	2913	4.018051779043	32
188	7116	6.527548878792	32
188	7380	6.530265215706	32
189	1449	3.528810782649	1
189	2231	4.009933290049	2
189	2681	4.014461991441	3
189	2833	4.014912222648	4
189	2913	4.018051779043	5
189	7116	6.527548878792	6
189	7380	6.530265215706	7
190	1452	3.528810895195	75
190	2234	4.009933401848	75
190	2791	4.014909468967	75
190	2906	4.018051584537	75
190	7119	6.527548993374	75
190	7314	6.529970408713	75
191	1452	3.528810895195	52
191	2234	4.009933401848	52
191	2791	4.014909468967	52
191	2906	4.018051584537	52
191	7119	6.527548993374	52
191	7314	6.529970408713	52
192	1454	3.528810895195	32
192	2236	4.009933401848	32
192	2793	4.014909468967	32
192	2908	4.018051584537	32
192	7121	6.527548993374	32
192	7316	6.529970408713	32
193	1454	3.528810895195	1
193	2236	4.009933401848	2
193	2793	4.014909468967	3
193	2908	4.018051584537	4
193	7121	6.527548993374	5
193	7316	6.529970408713	6
194	1460	3.528811111923	32
194	2242	4.009933611347	32
194	2428	4.011349782585	32
194	2509	4.011968821947	32
194	5657	6.113816753689	20
194	5966	6.201859186945	32
194	6058	6.204514611062	32
194	6296	6.206212022846	32
194	6395	6.207100317919	32
194	6553	6.52141177387	32
194	6629	6.522351184228	32
194	6812	6.524670156562	32
194	7131	6.52754916709	32
195	1460	3.528811111923	1
195	2242	4.009933611347	2
195	2428	4.011349782585	3
195	2509	4.011968821947	4
195	5657	6.113816753689	5
195	5966	6.201859186945	6
195	6058	6.204514611062	7
195	6296	6.206212022846	8
195	6395	6.207100317919	9
195	6553	6.52141177387	10
195	6629	6.522351184228	11
195	6812	6.524670156562	12
195	7131	6.52754916709	13
196	1466	3.528811194751	32
196	2248	4.009933698039	32
196	2292	4.010636934724	32
196	2418	4.011349757798	32
196	2553	4.01198968566	32
196	2634	4.012395126442	32
196	5652	6.113816610184	20
196	5961	6.201859042473	32
196	6134	6.204809746126	32
196	6285	6.206211997331	32
196	6385	6.207100153257	32
196	6548	6.521411625892	32
196	6619	6.522351015845	32
196	6744	6.524446816046	32
196	6949	6.525154240417	32
196	7141	6.527549275484	32
197	1466	3.528811194751	1
197	2248	4.009933698039	2
197	2292	4.010636934724	3
197	2418	4.011349757798	4
197	2553	4.01198968566	5
197	2634	4.012395126442	6
197	5652	6.113816610184	7
197	5961	6.201859042473	8
197	6134	6.204809746126	9
197	6285	6.206211997331	10
197	6385	6.207100153257	11
197	6548	6.521411625892	12
197	6619	6.522351015845	13
197	6744	6.524446816046	14
197	6949	6.525154240417	15
197	7141	6.527549275484	16
198	1482	3.529392225202	32
198	2029	4.009328700533	32
198	4502	5.014405389844	28
198	5492	6.113151514972	36
198	6156	6.205854709621	32
198	6781	6.524611108889	32
199	1484	3.529392225202	52
199	2031	4.009328700533	52
199	4185	5.009929650239	28
199	4340	5.010991083973	28
199	4957	6.010991083973	28
199	5043	6.011496422526	84
199	5044	6.011496422526	84
199	5045	6.011496422526	48
199	5046	6.011496422526	84
199	5494	6.113151514972	56
199	6158	6.205854709621	52
199	6783	6.524611108889	52
200	1484	3.529392225202	52
200	2031	4.009328700533	52
200	4185	5.009929650239	28
200	4340	5.010991083973	28
200	4957	6.010991083973	28
200	5043	6.011496422526	84
200	5044	6.011496422526	84
200	5045	6.011496422526	48
200	5046	6.011496422526	84
200	5494	6.113151514972	56
200	6158	6.205854709621	52
200	6783	6.524611108889	52
201	1484	3.529392225202	1
201	1484	3.529392225202	0
201	2031	4.009328700533	1
201	2031	4.009328700533	0
201	4185	5.009929650239	1
201	4185	5.009929650239	0
201	4340	5.010991083973	1
201	4340	5.010991083973	0
201	4957	6.010991083973	1
201	4957	6.010991083973	0
201	5043	6.011496422526	1
201	5043	6.011496422526	0
201	5044	6.011496422526	1
201	5045	6.011496422526	2
201	5046	6.011496422526	3
201	5099	6.011973091804	2
201	5177	6.012449761085	1
201	5420	6.112449761085	0
201	5494	6.113151514972	1
201	5494	6.113151514972	0
201	6158	6.205854709621	1
201	6158	6.205854709621	0
201	6783	6.524611108889	1
201	6783	6.524611108889	0
202	1484	3.529392225202	52
202	2031	4.009328700533	52
202	4185	5.009929650239	28
202	4340	5.010991083973	28
202	4957	6.010991083973	28
202	5043	6.011496422526	84
202	5099	6.011973091804	84
202	5177	6.012449761085	48
202	5420	6.112449761085	84
202	5494	6.113151514972	56
202	6158	6.205854709621	52
202	6783	6.524611108889	52
203	1484	3.529392225202	0
203	2031	4.009328700533	0
203	4185	5.009929650239	0
203	4340	5.010991083973	0
203	4957	6.010991083973	0
203	5043	6.011496422526	0
203	5099	6.011973091804	0.000476669278
203	5177	6.012449761085	0.000953338559
203	5420	6.112449761085	0.100953338559
203	5494	6.113151514972	0
203	6158	6.205854709621	0
203	6783	6.524611108889	0
204	1484	3.529392225202	75
204	2031	4.009328700533	75
204	4185	5.009929650239	51
204	4340	5.010991083973	51
204	4957	6.010991083973	51
204	5043	6.011496422526	107
204	5099	6.011973091804	107
204	5177	6.012449761085	71
204	5420	6.112449761085	107
204	5494	6.113151514972	79
204	6158	6.205854709621	75
204	6783	6.524611108889	75
205	1506	3.529503915792	32
205	2330	4.010899041284	32
205	7009	6.525489460939	32
206	1508	3.529503915792	52
206	2332	4.010899041284	52
206	7011	6.525489460939	52
207	1508	3.529503915792	52
207	2332	4.010899041284	52
207	7011	6.525489460939	52
208	1508	3.529503915792	1
208	1508	3.529503915792	0
208	2332	4.010899041284	1
208	2332	4.010899041284	0
208	7011	6.525489460939	1
208	7011	6.525489460939	0
209	1508	3.529503915792	52
209	2332	4.010899041284	52
209	7011	6.525489460939	52
210	1508	3.529503915792	0
210	2332	4.010899041284	0
210	7011	6.525489460939	0
211	1508	3.529503915792	75
211	2332	4.010899041284	75
211	7011	6.525489460939	75
212	2265	4.010288791641	32
212	6031	6.204461574347	32
212	6693	6.524098640011	32
213	2267	4.010288791641	52
213	6033	6.204461574347	52
213	6695	6.524098640011	52
214	2267	4.010288791641	52
214	6033	6.204461574347	52
214	6695	6.524098640011	52
215	2267	4.010288791641	1
215	2267	4.010288791641	0
215	6033	6.204461574347	1
215	6033	6.204461574347	0
215	6695	6.524098640011	1
215	6695	6.524098640011	0
216	2267	4.010288791641	52
216	6033	6.204461574347	52
216	6695	6.524098640011	52
217	2267	4.010288791641	0
217	6033	6.204461574347	0
217	6695	6.524098640011	0
218	2267	4.010288791641	75
218	6033	6.204461574347	75
218	6695	6.524098640011	75
219	2458	4.011620678847	32
219	5983	6.204166439287	32
219	6592	6.52212839232	32
220	2460	4.011620678847	52
220	5985	6.204166439287	52
220	6594	6.52212839232	52
221	2460	4.011620678847	52
221	5985	6.204166439287	52
221	6594	6.52212839232	52
222	2460	4.011620678847	1
222	2460	4.011620678847	0
222	5985	6.204166439287	1
222	5985	6.204166439287	0
222	6594	6.52212839232	1
222	6594	6.52212839232	0
223	2460	4.011620678847	52
223	5985	6.204166439287	52
223	6594	6.52212839232	52
224	2460	4.011620678847	0
224	5985	6.204166439287	0
224	6594	6.52212839232	0
225	2460	4.011620678847	75
225	5985	6.204166439287	75
225	6594	6.52212839232	75
226	2482	4.011641381622	32
226	6358	6.206751873125	32
226	6568	6.522002738651	32
227	2484	4.011641381622	52
227	6360	6.206751873125	52
227	6570	6.522002738651	52
228	2484	4.011641381622	52
228	6360	6.206751873125	52
228	6570	6.522002738651	52
229	2484	4.011641381622	1
229	2484	4.011641381622	0
229	6360	6.206751873125	1
229	6360	6.206751873125	0
229	6570	6.522002738651	1
229	6570	6.522002738651	0
230	2484	4.011641381622	52
230	6360	6.206751873125	52
230	6570	6.522002738651	52
231	2484	4.011641381622	0
231	6360	6.206751873125	0
231	6570	6.522002738651	0
232	2484	4.011641381622	75
232	6360	6.206751873125	75
232	6570	6.522002738651	75
233	2582	4.012046389884	32
233	6257	6.206208987419	32
233	6849	6.524805532378	32
234	2584	4.012046389884	52
234	6259	6.206208987419	52
234	6851	6.524805532378	52
235	2584	4.012046389884	52
235	6259	6.206208987419	52
235	6851	6.524805532378	52
236	2584	4.012046389884	1
236	2584	4.012046389884	0
236	6259	6.206208987419	1
236	6259	6.206208987419	0
236	6851	6.524805532378	1
236	6851	6.524805532378	0
237	2584	4.012046389884	52
237	6259	6.206208987419	52
237	6851	6.524805532378	52
238	2584	4.012046389884	0
238	6259	6.206208987419	0
238	6851	6.524805532378	0
239	2584	4.012046389884	75
239	6259	6.206208987419	75
239	6851	6.524805532378	75
240	2654	4.014113795692	32
240	7289	6.529916995488	32
241	2656	4.014113795692	52
241	7291	6.529916995488	52
242	2656	4.014113795692	52
242	7291	6.529916995488	52
243	2656	4.014113795692	1
243	2656	4.014113795692	0
243	7291	6.529916995488	1
243	7291	6.529916995488	0
244	2656	4.014113795692	52
244	7291	6.529916995488	52
245	2656	4.014113795692	0
245	7291	6.529916995488	0
246	2656	4.014113795692	75
246	7291	6.529916995488	75
247	2684	4.014462238118	75
247	2801	4.014909901769	75
247	2901	4.018051231394	75
247	7324	6.529970844357	75
248	2684	4.014462238118	52
248	2801	4.014909901769	52
248	2901	4.018051231394	52
248	7324	6.529970844357	52
249	2686	4.014462238118	32
249	2803	4.014909901769	32
249	2903	4.018051231394	32
249	7326	6.529970844357	32
250	2686	4.014462238118	1
250	2803	4.014909901769	2
250	2903	4.018051231394	3
250	7326	6.529970844357	4
251	2689	4.014462260431	75
251	2806	4.014909932434	75
251	7334	6.529970854091	75
252	2689	4.014462260431	52
252	2806	4.014909932434	52
252	7334	6.529970854091	52
253	2691	4.014462260431	32
253	2808	4.014909932434	32
253	7336	6.529970854091	32
254	2691	4.014462260431	1
254	2808	4.014909932434	2
254	7336	6.529970854091	3
255	2699	4.014462469841	75
255	2811	4.014909934026	75
255	7329	6.52997085007	75
256	2699	4.014462469841	52
256	2811	4.014909934026	52
256	7329	6.52997085007	52
257	2701	4.014462469841	32
257	2813	4.014909934026	32
257	7331	6.52997085007	32
258	2701	4.014462469841	1
258	2813	4.014909934026	2
258	7331	6.52997085007	3
259	2718	4.014561273215	32
259	7265	6.529622188498	32
260	2720	4.014561273215	52
260	7267	6.529622188498	52
261	2720	4.014561273215	52
261	7267	6.529622188498	52
262	2720	4.014561273215	1
262	2720	4.014561273215	0
262	7267	6.529622188498	1
262	7267	6.529622188498	0
263	2720	4.014561273215	52
263	7267	6.529622188498	52
264	2720	4.014561273215	0
264	7267	6.529622188498	0
265	2720	4.014561273215	75
265	7267	6.529622188498	75
266	2742	4.014563561837	32
267	2744	4.014563561837	52
268	2744	4.014563561837	52
269	2744	4.014563561837	1
269	2744	4.014563561837	0
270	2744	4.014563561837	52
271	2744	4.014563561837	0
272	2744	4.014563561837	75
273	2766	4.014897884603	32
274	2768	4.014897884603	52
275	2768	4.014897884603	52
276	2768	4.014897884603	1
276	2768	4.014897884603	0
277	2768	4.014897884603	52
278	2768	4.014897884603	0
279	2768	4.014897884603	75
280	2876	4.017703119814	32
281	2878	4.017703119814	52
282	2878	4.017703119814	52
283	2878	4.017703119814	1
283	2878	4.017703119814	0
284	2878	4.017703119814	52
285	2878	4.017703119814	0
286	2878	4.017703119814	75
287	3127	4.528615399916	51
287	3275	4.531294077947	51
287	3330	4.5316268403	71
287	3478	4.53662791543	71
287	3830	4.543681416172	107
287	3933	4.544158161414	107
287	4008	4.544634923593	107
287	4233	5.010182039404	51
287	4478	5.011496235749	51
287	4659	5.196683738469	107
287	4719	5.197160490598	107
287	5037	6.011496251806	51
287	5091	6.011972800657	107
287	5162	6.012449469929	107
287	5276	6.012782139205	71
287	5445	6.112926138109	107
287	5517	6.11340293057	107
287	5830	6.196683743646	107
287	5888	6.197160473102	107
287	7641	6.536456997518	51
287	7672	6.536789397774	71
287	7868	6.54131202867	71
287	7969	6.542265062016	107
287	8000	6.542741462349	107
287	8350	7.196683748943	107
287	8423	7.197160741807	107
287	8524	7.198113780392	107
287	8555	7.198590189446	107
287	8949	8.196683754352	107
287	9022	8.197160726359	107
287	9123	8.198113773025	107
287	9154	8.198590195339	107
287	9548	9.19668375987	107
287	9621	9.19716071114	107
287	9722	9.198113765996	107
287	9753	9.198590201517	107
287	10248	10.196683764962	107
288	3135	4.528615644328	51
288	3639	4.542251694046	71
288	3950	4.544158423027	107
288	4014	4.54463516827	107
288	4245	5.010182314065	51
288	4727	5.197160745499	107
288	5309	6.012926338934	107
288	5379	6.013403008215	107
288	5894	6.197160739259	107
288	7866	6.541311924718	71
288	8056	6.543218204978	107
288	8421	7.197160639467	107
288	8611	7.199066924699	107
288	9020	8.197160626371	107
288	9210	8.199066919274	107
288	9619	9.197160613369	107
288	9809	9.199066914051	107
289	3179	4.528947890267	71
289	4296	5.01051474509	71
289	4347	5.010991222999	107
289	4461	5.011467700909	107
289	4771	5.197636987626	107
289	7622	6.536456688354	51
289	7808	6.540979313208	51
289	7846	6.541311719565	71
289	7911	6.541788346554	107
289	7950	6.542264752921	107
289	8401	7.197160440938	107
289	8467	7.197637062882	107
289	8505	7.198113479535	107
289	9000	8.197160438045	107
289	9066	8.197637052233	107
289	9104	8.198113484723	107
289	9601	9.197160435363	107
289	9665	9.197637041725	107
289	9705	9.198113490231	107
290	3181	4.52894801649	71
290	4298	5.010514876531	71
290	4349	5.010991354443	107
290	4463	5.011467832358	107
290	4773	5.197637121072	107
290	7628	6.536456714004	51
290	7810	6.540979461402	51
290	7857	6.541311745217	71
290	7913	6.541788494754	107
290	7956	6.542264778573	107
290	8412	7.19716046681	107
290	8469	7.197637218279	107
290	8511	7.198113505407	107
290	9015	8.19716046413	107
290	9068	8.197637218598	107
290	9114	8.198113510808	107
290	9614	9.197160461521	107
290	9667	9.19763721905	107
290	9713	9.198113516389	107
291	3196	4.530788849276	28
292	3239	4.531041594436	28
292	4412	5.011243747805	28
292	4996	6.011243753249	28
293	3277	4.531294218386	51
293	3838	4.543681556495	107
293	3938	4.544158301733	107
293	4480	5.011496371583	51
293	4661	5.196683872381	107
293	5039	6.011496376814	51
293	5832	6.196683866625	107
293	7674	6.536789517011	71
293	8352	7.196683860895	107
293	8951	8.19668385519	107
293	9550	9.196683849514	107
293	10250	10.196683843818	107
294	3281	4.531294299963	51
294	3487	4.536628137451	71
294	3844	4.543681638199	107
294	3943	4.544158383441	107
294	4249	5.010182471851	51
294	4484	5.011496458158	51
294	4667	5.196683960747	107
294	5051	6.011496473119	51
294	5108	6.011973239112	107
294	5185	6.012449811681	107
294	5319	6.012926480967	107
294	5460	6.112926577166	107
294	5528	6.113403151764	107
294	5838	6.196683964742	107
294	7683	6.53678961847	71
294	8011	6.542741683038	107
294	8361	7.196683968868	107
294	8566	7.198590409369	107
294	8960	8.196683973122	107
294	9165	8.198590414108	107
294	9563	9.196683977503	107
294	9768	9.198590419148	107
294	10263	10.196683982005	107
295	3285	4.531294327345	51
295	3491	4.536628164785	71
295	3848	4.54368166547	107
295	3946	4.544158410709	107
295	4486	5.011496481236	51
295	4669	5.196683982512	107
295	5053	6.011496489044	51
295	5187	6.012449827601	107
295	5321	6.012926496883	107
295	5530	6.113403166963	107
295	5840	6.196683979347	107
295	7626	6.536456708303	51
295	7685	6.536789630654	71
295	7855	6.541311739458	71
295	7954	6.542264772805	107
295	8013	6.542741695181	107
295	8363	7.196683976377	107
295	8403	7.197160453036	107
295	8507	7.198113491621	107
295	8568	7.198590416864	107
295	8962	8.196683973599	107
295	9002	8.197160438361	107
295	9106	8.198113485028	107
295	9167	8.198590414571	107
295	9559	9.196683971014	107
295	9599	9.19716042404	107
295	9703	9.198113478898	107
295	9764	9.198590412646	107
295	10261	10.196683968701	107
296	3328	4.531626710815	71
296	5095	6.011972906215	107
296	5166	6.012449575495	107
296	5280	6.012782244779	71
296	5449	6.112926245357	107
296	7624	6.536456706737	51
296	7952	6.542264771292	107
296	8509	7.19811349641	107
296	9108	8.198113499234	107
296	9707	9.198113502282	107
297	3354	4.535790183975	28
297	7541	6.535951486607	28
298	3382	4.536042807923	28
299	3433	4.536295367882	51
299	3585	4.541918520561	51
299	3629	4.542251630065	71
299	3677	4.542727759063	107
299	3742	4.543204378311	107
299	3832	4.543681492516	107
299	4570	5.195730075133	107
299	4614	5.196207185681	107
299	5302	6.012926277313	107
299	5372	6.013402946594	107
299	5673	6.113879616555	107
299	5741	6.195730070622	107
299	5785	6.196207181784	107
299	7457	6.530815484405	71
299	7507	6.532080257427	71
299	8049	6.543218144249	107
299	8261	7.195730066522	107
299	8305	7.196207177963	107
299	8604	7.199066865093	107
299	8860	8.195730062928	107
299	8904	8.196207174217	107
299	9203	8.199066861423	107
299	9459	9.195730059947	107
299	9503	9.196207170547	107
299	9802	9.199066858003	107
299	10159	10.195730057255	107
299	10203	10.196207166889	107
300	3435	4.536295427208	51
300	3747	4.543204927851	107
300	3834	4.543681551794	107
300	4616	5.196207240615	107
300	5787	6.196207229923	107
300	7509	6.532080303277	71
300	8307	7.196207219282	107
300	8906	8.196207208693	107
300	9505	9.196207198157	107
300	10205	10.196207187628	107
301	3493	4.536628177065	71
301	4229	5.010181757199	51
301	4285	5.010514501782	71
301	4335	5.010990979695	107
301	4488	5.011496495974	51
301	4764	5.197636746338	107
301	5055	6.011496501391	51
301	5089	6.011972528543	107
301	5160	6.01244919782	107
301	5274	6.012781867101	71
301	5443	6.112925867018	107
301	5532	6.113403179027	107
301	7630	6.536456723767	51
301	7687	6.536789641523	71
301	7799	6.540979086593	51
301	7859	6.54131175494	71
301	7902	6.541788119945	107
301	7958	6.542264788289	107
301	8015	6.542741706033	107
301	8365	7.196683985334	107
301	8414	7.19716047094	107
301	8458	7.197636843445	107
301	8513	7.198113509529	107
301	8570	7.198590425815	107
301	8964	8.19668397954	107
301	9011	8.197160459723	107
301	9057	8.19763684374	107
301	9110	8.198113506393	107
301	9169	8.198590420506	107
301	9561	9.196683973798	107
301	9610	9.197160448568	107
301	9656	9.197636844184	107
301	9709	9.198113503428	107
301	9766	9.198590415424	107
301	10259	10.196683968118	107
302	3513	4.541413831591	28
303	3542	4.541666450846	28
304	4184	5.009929650239	28
305	4339	5.010991083973	28
305	4956	6.010991083973	28
306	5306	6.012926326699	0
306	5376	6.013402995977	1
306	5677	6.113879665254	2
306	8053	6.543218190025	3
306	8608	7.199066906393	4
306	9207	8.199066895879	5
306	9806	9.199066885593	6
307	5306	6.012926326699	2.817672317482
307	5376	6.013402995977	1.81814898676
307	5677	6.113879665254	0.918625656037
307	8053	6.543218190025	0.347964180808
307	8608	7.199066906393	0.003812897176
307	9207	8.199066895879	0.003812886662
307	9806	9.199066885593	0.003812876376
308	7575	6.536204190081	28
309	7708	6.540474187916	28
310	7740	6.540726704589	28
